version 3
run General-0-20250714-19:57:42-46424
attr configname General
attr datetime 20250714-19:57:42
attr datetimef 20250714-195742
attr experiment General
attr inifile omnetpp.ini
attr iterationvars ""
attr iterationvarsd ""
attr iterationvarsf ""
attr measurement ""
attr network SimpleWlanFtp
attr processid 46424
attr repetition 0
attr replication #0
attr resultdir results
attr runnumber 0
attr seedset 0
config image-path ../../omnetpp-6.1_latest/omnetpp-6.1/samples/inet4.5/images
config network SimpleWlanFtp
config sim-time-limit 100s
config warmup-period 0s
config repeat 1
config seed-set 0
config **.constraintAreaMinX 0m
config **.constraintAreaMinY 0m
config **.constraintAreaMinZ 0m
config **.constraintAreaMaxX 250m
config **.constraintAreaMaxY 30m
config **.constraintAreaMaxZ 0m
config **.mobility.initFromDisplayString false
config **.ap.mobility.typename StationaryMobility
config **.ap.mobility.initialX 125m
config **.ap.mobility.initialY 15m
config **.ap.mobility.initialZ 0m
config **.ftp_cli.mobility.typename StationaryMobility
config **.ftp_cli.mobility.initialX 50m
config **.ftp_cli.mobility.initialY 15m
config **.ftp_cli.mobility.initialZ 0m
config **.opMode "\"g(mixed)\""
config **.channelNumber 0
config **.wlan[*].bitrate 54Mbps
config **.wlan[*].radio.typename Ieee80211ScalarRadio
config **.wlan[*].radio.bandName "\"2.4 GHz\""
config **.wlan[*].radio.channelNumber 0
config **.wlan[*].radio.transmitter.power 20mW
config **.wlan[*].radio.receiver.sensitivity -85dBm
config **.wlan[*].radio.receiver.snirThreshold 4dB
config **.wlan[*].mac.typename Ieee80211Mac
config **.wlan[*].mac.dcf.channelAccess.cwMin 15
config **.wlan[*].mac.dcf.channelAccess.cwMax 1023
config **.tcp.typename Tcp
config **.tcp.tcpAlgorithmClass "\"TcpNewReno\""
config **.tcp.windowScalingSupport true
config **.tcp.mss 1460
config **.tcp.advertisedWindow 1460000
config **.tcp.recordStatistics true
config **.tcp.dump true
config **.TcpSessionApp.debug true
config **.ftp_cli.numApps 1
config **.ftp_cli.app[0].typename TcpSessionApp
config **.ftp_cli.app[0].active true
config **.ftp_cli.app[0].localAddress "\"\""
config **.ftp_cli.app[0].localPort -1
config **.ftp_cli.app[0].connectAddress "\"ftp_srv\""
config **.ftp_cli.app[0].connectPort 1000
config **.ftp_cli.app[0].tOpen 1s
config **.ftp_cli.app[0].sendBytes 50MB
config **.ftp_cli.app[0].sendScript "\"\""
config **.ftp_cli.app[0].tClose 90s
config **.ftp_srv.numApps 1
config **.ftp_srv.app[0].typename TcpSinkApp
config **.ftp_srv.app[0].localAddress "\"\""
config **.ftp_srv.app[0].localPort 1000
config **.visualizer.mediumVisualizer.displaySignals true
config **.visualizer.physicalLinkVisualizer.displayLinks true
config **.visualizer.dataLinkVisualizer.displayLinks true
config **.visualizer.networkRouteVisualizer.displayRoutes true
config **.visualizer.transportConnectionVisualizer.displayTransportConnections true
config **.scalar-recording true
config **.vector-recording true
config **.ftp_cli.app[0].*.result-recording-modes all
config **.ftp_srv.app[0].*.result-recording-modes all
config **.wlan[*].mac.*.result-recording-modes all
config **.wlan[*].radio.*.result-recording-modes all
config output-scalar-file results/General-0.sca
config output-vector-file results/General-0.vec

par SimpleWlanFtp.ap.ethg$o[0].channel typename "\"ned.DatarateChannel\""
par SimpleWlanFtp.ap.ethg$o[0].channel disabled false
attr mutable ""
par SimpleWlanFtp.ap.ethg$o[0].channel delay 0.001s
attr mutable ""
attr unit s
par SimpleWlanFtp.ap.ethg$o[0].channel datarate 1e+08bps
attr mutable ""
attr unit bps
par SimpleWlanFtp.ap.ethg$o[0].channel ber 0
attr mutable ""
par SimpleWlanFtp.ap.ethg$o[0].channel per 0
attr mutable ""
par SimpleWlanFtp.dsl_router.ethg$o[0].channel typename "\"ned.DatarateChannel\""
par SimpleWlanFtp.dsl_router.ethg$o[0].channel disabled false
attr mutable ""
par SimpleWlanFtp.dsl_router.ethg$o[0].channel delay 0.001s
attr mutable ""
attr unit s
par SimpleWlanFtp.dsl_router.ethg$o[0].channel datarate 1e+08bps
attr mutable ""
attr unit bps
par SimpleWlanFtp.dsl_router.ethg$o[0].channel ber 0
attr mutable ""
par SimpleWlanFtp.dsl_router.ethg$o[0].channel per 0
attr mutable ""
par SimpleWlanFtp.dsl_router.pppg$o[0].channel typename "\"ned.DatarateChannel\""
par SimpleWlanFtp.dsl_router.pppg$o[0].channel disabled false
attr mutable ""
par SimpleWlanFtp.dsl_router.pppg$o[0].channel delay 0.01s
attr mutable ""
attr unit s
par SimpleWlanFtp.dsl_router.pppg$o[0].channel datarate 4e+07bps
attr mutable ""
attr unit bps
par SimpleWlanFtp.dsl_router.pppg$o[0].channel ber 0
attr mutable ""
par SimpleWlanFtp.dsl_router.pppg$o[0].channel per 0
attr mutable ""
par SimpleWlanFtp.isp_router.pppg$o[0].channel typename "\"ned.DatarateChannel\""
par SimpleWlanFtp.isp_router.pppg$o[0].channel disabled false
attr mutable ""
par SimpleWlanFtp.isp_router.pppg$o[0].channel delay 0.01s
attr mutable ""
attr unit s
par SimpleWlanFtp.isp_router.pppg$o[0].channel datarate 4e+07bps
attr mutable ""
attr unit bps
par SimpleWlanFtp.isp_router.pppg$o[0].channel ber 0
attr mutable ""
par SimpleWlanFtp.isp_router.pppg$o[0].channel per 0
attr mutable ""
par SimpleWlanFtp.isp_router.ethg$o[0].channel typename "\"ned.DatarateChannel\""
par SimpleWlanFtp.isp_router.ethg$o[0].channel disabled false
attr mutable ""
par SimpleWlanFtp.isp_router.ethg$o[0].channel delay 0.02s
attr mutable ""
attr unit s
par SimpleWlanFtp.isp_router.ethg$o[0].channel datarate 1e+08bps
attr mutable ""
attr unit bps
par SimpleWlanFtp.isp_router.ethg$o[0].channel ber 0
attr mutable ""
par SimpleWlanFtp.isp_router.ethg$o[0].channel per 0
attr mutable ""
par SimpleWlanFtp.ftp_srv.ethg$o[0].channel typename "\"ned.DatarateChannel\""
par SimpleWlanFtp.ftp_srv.ethg$o[0].channel disabled false
attr mutable ""
par SimpleWlanFtp.ftp_srv.ethg$o[0].channel delay 0.02s
attr mutable ""
attr unit s
par SimpleWlanFtp.ftp_srv.ethg$o[0].channel datarate 1e+08bps
attr mutable ""
attr unit bps
par SimpleWlanFtp.ftp_srv.ethg$o[0].channel ber 0
attr mutable ""
par SimpleWlanFtp.ftp_srv.ethg$o[0].channel per 0
attr mutable ""
par SimpleWlanFtp.visualizer.sceneVisualizer typename "\"inet.visualizer.canvas.scene.SceneCanvasVisualizer\""
par SimpleWlanFtp.visualizer.sceneVisualizer visualizationTargetModule "\"^.^\""
par SimpleWlanFtp.visualizer.sceneVisualizer visualizationSubjectModule "\"^.^\""
par SimpleWlanFtp.visualizer.sceneVisualizer tags "\"\""
par SimpleWlanFtp.visualizer.sceneVisualizer physicalEnvironmentModule "\"physicalEnvironment\""
par SimpleWlanFtp.visualizer.sceneVisualizer networkNodeVisualizerModule "\"^.networkNodeVisualizer\""
par SimpleWlanFtp.visualizer.sceneVisualizer axisLength "nan m"
attr mutable ""
attr unit m
par SimpleWlanFtp.visualizer.sceneVisualizer animationSpeed 0
par SimpleWlanFtp.visualizer.sceneVisualizer sceneMinX "nan m"
attr unit m
par SimpleWlanFtp.visualizer.sceneVisualizer sceneMinY "nan m"
attr unit m
par SimpleWlanFtp.visualizer.sceneVisualizer sceneMinZ "nan m"
attr unit m
par SimpleWlanFtp.visualizer.sceneVisualizer sceneMaxX "nan m"
attr unit m
par SimpleWlanFtp.visualizer.sceneVisualizer sceneMaxY "nan m"
attr unit m
par SimpleWlanFtp.visualizer.sceneVisualizer sceneMaxZ "nan m"
attr unit m
par SimpleWlanFtp.visualizer.sceneVisualizer zIndex 0
par SimpleWlanFtp.visualizer.sceneVisualizer viewAngle "\"x right y down z out\""
attr mutable ""
par SimpleWlanFtp.visualizer.sceneVisualizer viewScale "\"1 1\""
attr mutable ""
par SimpleWlanFtp.visualizer.sceneVisualizer viewTranslation "\"0 0\""
attr mutable ""
par SimpleWlanFtp.visualizer.sceneVisualizer descriptionFigure "\"\""
par SimpleWlanFtp.visualizer.physicalEnvironmentVisualizer typename "\"inet.visualizer.canvas.environment.PhysicalEnvironmentCanvasVisualizer\""
par SimpleWlanFtp.visualizer.physicalEnvironmentVisualizer visualizationTargetModule "\"^.^\""
par SimpleWlanFtp.visualizer.physicalEnvironmentVisualizer visualizationSubjectModule "\"^.^\""
par SimpleWlanFtp.visualizer.physicalEnvironmentVisualizer tags "\"\""
par SimpleWlanFtp.visualizer.physicalEnvironmentVisualizer physicalEnvironmentModule "\"physicalEnvironment\""
par SimpleWlanFtp.visualizer.physicalEnvironmentVisualizer displayObjects true
par SimpleWlanFtp.visualizer.physicalEnvironmentVisualizer zIndex 0
par SimpleWlanFtp.visualizer.networkNodeVisualizer typename "\"inet.visualizer.canvas.scene.NetworkNodeCanvasVisualizer\""
par SimpleWlanFtp.visualizer.networkNodeVisualizer visualizationTargetModule "\"^.^\""
par SimpleWlanFtp.visualizer.networkNodeVisualizer visualizationSubjectModule "\"^.^\""
par SimpleWlanFtp.visualizer.networkNodeVisualizer tags "\"\""
par SimpleWlanFtp.visualizer.networkNodeVisualizer nodeFilter "\"*\""
attr mutable ""
par SimpleWlanFtp.visualizer.networkNodeVisualizer annotationSpacing 4
par SimpleWlanFtp.visualizer.networkNodeVisualizer placementPenalty 10
par SimpleWlanFtp.visualizer.networkNodeVisualizer zIndex 0
par SimpleWlanFtp.visualizer.networkConnectionVisualizer typename "\"inet.visualizer.canvas.scene.NetworkConnectionCanvasVisualizer\""
par SimpleWlanFtp.visualizer.networkConnectionVisualizer visualizationTargetModule "\"^.^\""
par SimpleWlanFtp.visualizer.networkConnectionVisualizer visualizationSubjectModule "\"^.^\""
par SimpleWlanFtp.visualizer.networkConnectionVisualizer tags "\"\""
par SimpleWlanFtp.visualizer.networkConnectionVisualizer displayNetworkConnections true
par SimpleWlanFtp.visualizer.networkConnectionVisualizer nodeFilter "\"\""
attr mutable ""
par SimpleWlanFtp.visualizer.networkConnectionVisualizer lineColor "\"black\""
par SimpleWlanFtp.visualizer.networkConnectionVisualizer lineStyle "\"solid\""
par SimpleWlanFtp.visualizer.networkConnectionVisualizer lineWidth 1
par SimpleWlanFtp.visualizer.networkConnectionVisualizer zIndex 0
par SimpleWlanFtp.visualizer.mobilityVisualizer typename "\"inet.visualizer.canvas.mobility.MobilityCanvasVisualizer\""
par SimpleWlanFtp.visualizer.mobilityVisualizer visualizationTargetModule "\"^.^\""
par SimpleWlanFtp.visualizer.mobilityVisualizer visualizationSubjectModule "\"^.^\""
par SimpleWlanFtp.visualizer.mobilityVisualizer tags "\"\""
par SimpleWlanFtp.visualizer.mobilityVisualizer networkNodeVisualizerModule "\"^.networkNodeVisualizer\""
par SimpleWlanFtp.visualizer.mobilityVisualizer displayMobility true
par SimpleWlanFtp.visualizer.mobilityVisualizer animationSpeed 0
par SimpleWlanFtp.visualizer.mobilityVisualizer moduleFilter "\"**.mobility\""
attr mutable ""
par SimpleWlanFtp.visualizer.mobilityVisualizer displayPositions false
par SimpleWlanFtp.visualizer.mobilityVisualizer positionCircleRadius 4
par SimpleWlanFtp.visualizer.mobilityVisualizer positionCircleLineWidth 1
par SimpleWlanFtp.visualizer.mobilityVisualizer positionCircleLineColor "\"dark\""
par SimpleWlanFtp.visualizer.mobilityVisualizer positionCircleFillColor "\"dark\""
par SimpleWlanFtp.visualizer.mobilityVisualizer displayOrientations false
par SimpleWlanFtp.visualizer.mobilityVisualizer orientationPieRadius 32
par SimpleWlanFtp.visualizer.mobilityVisualizer orientationPieSize 0.2
par SimpleWlanFtp.visualizer.mobilityVisualizer orientationPieOpacity 0.25
par SimpleWlanFtp.visualizer.mobilityVisualizer orientationLineColor "\"black\""
par SimpleWlanFtp.visualizer.mobilityVisualizer orientationLineStyle "\"solid\""
par SimpleWlanFtp.visualizer.mobilityVisualizer orientationLineWidth 1
par SimpleWlanFtp.visualizer.mobilityVisualizer orientationFillColor "\"blue\""
par SimpleWlanFtp.visualizer.mobilityVisualizer displayVelocities false
par SimpleWlanFtp.visualizer.mobilityVisualizer velocityArrowScale 1
par SimpleWlanFtp.visualizer.mobilityVisualizer velocityLineColor "\"black\""
par SimpleWlanFtp.visualizer.mobilityVisualizer velocityLineStyle "\"solid\""
par SimpleWlanFtp.visualizer.mobilityVisualizer velocityLineWidth 1
par SimpleWlanFtp.visualizer.mobilityVisualizer displayMovementTrails false
par SimpleWlanFtp.visualizer.mobilityVisualizer movementTrailLineColor "\"dark\""
par SimpleWlanFtp.visualizer.mobilityVisualizer movementTrailLineStyle "\"solid\""
par SimpleWlanFtp.visualizer.mobilityVisualizer movementTrailLineWidth 1
par SimpleWlanFtp.visualizer.mobilityVisualizer trailLength 100
par SimpleWlanFtp.visualizer.mobilityVisualizer zIndex 0
par SimpleWlanFtp.visualizer.statisticVisualizer typename "\"inet.visualizer.canvas.common.StatisticCanvasVisualizer\""
par SimpleWlanFtp.visualizer.statisticVisualizer visualizationTargetModule "\"^.^\""
par SimpleWlanFtp.visualizer.statisticVisualizer visualizationSubjectModule "\"^.^\""
par SimpleWlanFtp.visualizer.statisticVisualizer tags "\"\""
par SimpleWlanFtp.visualizer.statisticVisualizer networkNodeVisualizerModule "\"^.networkNodeVisualizer\""
par SimpleWlanFtp.visualizer.statisticVisualizer displayStatistics true
par SimpleWlanFtp.visualizer.statisticVisualizer signalName "\"\""
par SimpleWlanFtp.visualizer.statisticVisualizer statisticName "\"\""
par SimpleWlanFtp.visualizer.statisticVisualizer statisticUnit "\"\""
par SimpleWlanFtp.visualizer.statisticVisualizer statisticExpression "\"\""
par SimpleWlanFtp.visualizer.statisticVisualizer sourceFilter "\"**\""
attr mutable ""
par SimpleWlanFtp.visualizer.statisticVisualizer format "\"%n: %v %u\""
attr mutable ""
par SimpleWlanFtp.visualizer.statisticVisualizer unit "\"\""
par SimpleWlanFtp.visualizer.statisticVisualizer font "\"<default>\""
par SimpleWlanFtp.visualizer.statisticVisualizer textColor "\"black\""
par SimpleWlanFtp.visualizer.statisticVisualizer backgroundColor "\"white\""
par SimpleWlanFtp.visualizer.statisticVisualizer opacity 1
par SimpleWlanFtp.visualizer.statisticVisualizer placementHint "\"top\""
par SimpleWlanFtp.visualizer.statisticVisualizer placementPriority 0
par SimpleWlanFtp.visualizer.statisticVisualizer zIndex 10
par SimpleWlanFtp.visualizer.statisticVisualizer propertyName "\"\""
par SimpleWlanFtp.visualizer.statisticVisualizer propertyIndex "\"\""
par SimpleWlanFtp.visualizer.infoVisualizer typename "\"inet.visualizer.canvas.common.InfoCanvasVisualizer\""
par SimpleWlanFtp.visualizer.infoVisualizer visualizationTargetModule "\"^.^\""
par SimpleWlanFtp.visualizer.infoVisualizer visualizationSubjectModule "\"^.^\""
par SimpleWlanFtp.visualizer.infoVisualizer tags "\"\""
par SimpleWlanFtp.visualizer.infoVisualizer networkNodeVisualizerModule "\"^.networkNodeVisualizer\""
par SimpleWlanFtp.visualizer.infoVisualizer displayInfos true
par SimpleWlanFtp.visualizer.infoVisualizer modules "\"\""
attr mutable ""
par SimpleWlanFtp.visualizer.infoVisualizer format "\"%t\""
attr mutable ""
par SimpleWlanFtp.visualizer.infoVisualizer font "\"<default>\""
par SimpleWlanFtp.visualizer.infoVisualizer textColor "\"black\""
par SimpleWlanFtp.visualizer.infoVisualizer backgroundColor "\"white\""
par SimpleWlanFtp.visualizer.infoVisualizer opacity 1
par SimpleWlanFtp.visualizer.infoVisualizer placementHint "\"top\""
par SimpleWlanFtp.visualizer.infoVisualizer placementPriority 0
par SimpleWlanFtp.visualizer.infoVisualizer zIndex 10
par SimpleWlanFtp.visualizer.energyStorageVisualizer typename "\"inet.visualizer.canvas.power.EnergyStorageCanvasVisualizer\""
par SimpleWlanFtp.visualizer.energyStorageVisualizer visualizationTargetModule "\"^.^\""
par SimpleWlanFtp.visualizer.energyStorageVisualizer visualizationSubjectModule "\"^.^\""
par SimpleWlanFtp.visualizer.energyStorageVisualizer tags "\"\""
par SimpleWlanFtp.visualizer.energyStorageVisualizer networkNodeVisualizerModule "\"^.networkNodeVisualizer\""
par SimpleWlanFtp.visualizer.energyStorageVisualizer displayEnergyStorages false
par SimpleWlanFtp.visualizer.energyStorageVisualizer energyStorageFilter "\"**\""
par SimpleWlanFtp.visualizer.energyStorageVisualizer color "\"green\""
par SimpleWlanFtp.visualizer.energyStorageVisualizer width 8
par SimpleWlanFtp.visualizer.energyStorageVisualizer height 24
par SimpleWlanFtp.visualizer.energyStorageVisualizer spacing 2
par SimpleWlanFtp.visualizer.energyStorageVisualizer placementHint "\"right\""
par SimpleWlanFtp.visualizer.energyStorageVisualizer placementPriority 0
par SimpleWlanFtp.visualizer.energyStorageVisualizer zIndex 10
par SimpleWlanFtp.visualizer.mediumVisualizer typename "\"inet.visualizer.canvas.physicallayer.MediumCanvasVisualizer\""
par SimpleWlanFtp.visualizer.mediumVisualizer visualizationTargetModule "\"^.^\""
par SimpleWlanFtp.visualizer.mediumVisualizer visualizationSubjectModule "\"^.^\""
par SimpleWlanFtp.visualizer.mediumVisualizer tags "\"\""
par SimpleWlanFtp.visualizer.mediumVisualizer mediumModule "\"radioMedium\""
par SimpleWlanFtp.visualizer.mediumVisualizer networkNodeVisualizerModule "\"^.networkNodeVisualizer\""
par SimpleWlanFtp.visualizer.mediumVisualizer nodeFilter "\"*\""
attr mutable ""
par SimpleWlanFtp.visualizer.mediumVisualizer interfaceFilter "\"*\""
attr mutable ""
par SimpleWlanFtp.visualizer.mediumVisualizer packetFilter "(omnetpp::cValueHolder)holder: \"*\""
attr mutable ""
par SimpleWlanFtp.visualizer.mediumVisualizer displaySignals true
par SimpleWlanFtp.visualizer.mediumVisualizer signalColor "\"dark\""
par SimpleWlanFtp.visualizer.mediumVisualizer signalPropagationAnimationSpeed "nan "
attr mutable ""
par SimpleWlanFtp.visualizer.mediumVisualizer signalPropagationAnimationTime 1s
attr unit s
par SimpleWlanFtp.visualizer.mediumVisualizer signalPropagationAdditionalTime 0s
attr unit s
par SimpleWlanFtp.visualizer.mediumVisualizer signalTransmissionAnimationSpeed "nan "
attr mutable ""
par SimpleWlanFtp.visualizer.mediumVisualizer signalTransmissionAnimationTime 1s
attr unit s
par SimpleWlanFtp.visualizer.mediumVisualizer signalAnimationSpeedChangeTimeMode "\"realTime\""
attr enum realTime,animationTime,simulationTime
par SimpleWlanFtp.visualizer.mediumVisualizer signalAnimationSpeedChangeTime 1s
attr unit s
par SimpleWlanFtp.visualizer.mediumVisualizer displaySignalDepartures false
par SimpleWlanFtp.visualizer.mediumVisualizer signalDepartureImage "\"misc/signal_departure.png\""
par SimpleWlanFtp.visualizer.mediumVisualizer signalDeparturePlacementHint "\"topCenter\""
par SimpleWlanFtp.visualizer.mediumVisualizer signalDeparturePlacementPriority 1
par SimpleWlanFtp.visualizer.mediumVisualizer displaySignalArrivals false
par SimpleWlanFtp.visualizer.mediumVisualizer signalArrivalImage "\"misc/signal_arrival.png\""
par SimpleWlanFtp.visualizer.mediumVisualizer signalArrivalPlacementHint "\"topCenter\""
par SimpleWlanFtp.visualizer.mediumVisualizer signalArrivalPlacementPriority -1
par SimpleWlanFtp.visualizer.mediumVisualizer displayCommunicationRanges false
par SimpleWlanFtp.visualizer.mediumVisualizer communicationRangeLineColor "\"blue\""
par SimpleWlanFtp.visualizer.mediumVisualizer communicationRangeLineStyle "\"solid\""
par SimpleWlanFtp.visualizer.mediumVisualizer communicationRangeLineWidth 1
par SimpleWlanFtp.visualizer.mediumVisualizer displayInterferenceRanges false
par SimpleWlanFtp.visualizer.mediumVisualizer interferenceRangeLineColor "\"gray\""
par SimpleWlanFtp.visualizer.mediumVisualizer interferenceRangeLineStyle "\"solid\""
par SimpleWlanFtp.visualizer.mediumVisualizer interferenceRangeLineWidth 1
par SimpleWlanFtp.visualizer.mediumVisualizer autoPowerAxis true
par SimpleWlanFtp.visualizer.mediumVisualizer signalMinPower "inf dBmW"
attr unit dBmW
par SimpleWlanFtp.visualizer.mediumVisualizer signalMaxPower 0dBmW
attr unit dBmW
par SimpleWlanFtp.visualizer.mediumVisualizer signalMinPowerDensity "inf dBmWpMHz"
attr unit dBmWpMHz
par SimpleWlanFtp.visualizer.mediumVisualizer signalMaxPowerDensity "-inf dBmWpMHz"
attr unit dBmWpMHz
par SimpleWlanFtp.visualizer.mediumVisualizer autoTimeAxis true
par SimpleWlanFtp.visualizer.mediumVisualizer signalMinTime 0s
attr unit s
par SimpleWlanFtp.visualizer.mediumVisualizer signalMaxTime 0s
attr unit s
par SimpleWlanFtp.visualizer.mediumVisualizer autoFrequencyAxis true
par SimpleWlanFtp.visualizer.mediumVisualizer signalMinFrequency "inf Hz"
attr unit Hz
par SimpleWlanFtp.visualizer.mediumVisualizer signalMaxFrequency "-inf Hz"
attr unit Hz
par SimpleWlanFtp.visualizer.mediumVisualizer displayMainPowerDensityMap false
par SimpleWlanFtp.visualizer.mediumVisualizer mainPowerDensityMapPixmapDensity 1
par SimpleWlanFtp.visualizer.mediumVisualizer mainPowerDensityMapMinX 0
par SimpleWlanFtp.visualizer.mediumVisualizer mainPowerDensityMapMaxX "nan "
par SimpleWlanFtp.visualizer.mediumVisualizer mainPowerDensityMapMinY 0
par SimpleWlanFtp.visualizer.mediumVisualizer mainPowerDensityMapMaxY "nan "
par SimpleWlanFtp.visualizer.mediumVisualizer mainPowerDensityMapZ 0
par SimpleWlanFtp.visualizer.mediumVisualizer mainPowerDensityMapFigureXTickCount 3
par SimpleWlanFtp.visualizer.mediumVisualizer mainPowerDensityMapFigureYTickCount 3
par SimpleWlanFtp.visualizer.mediumVisualizer displayPowerDensityMaps false
par SimpleWlanFtp.visualizer.mediumVisualizer powerDensityMapMode "\"auto\""
attr enum total,signal,auto
par SimpleWlanFtp.visualizer.mediumVisualizer powerDensityMapPixelMode "\"mean\""
attr enum sample,partition,mean
par SimpleWlanFtp.visualizer.mediumVisualizer powerDensityMapApproximationSize 10
par SimpleWlanFtp.visualizer.mediumVisualizer powerDensityMapCenterFrequency "nan Hz"
attr mutable ""
attr unit Hz
par SimpleWlanFtp.visualizer.mediumVisualizer powerDensityMapBandwidth 0Hz
attr mutable ""
attr unit Hz
par SimpleWlanFtp.visualizer.mediumVisualizer powerDensityMapFigureWidth 200
par SimpleWlanFtp.visualizer.mediumVisualizer powerDensityMapFigureHeight 120
par SimpleWlanFtp.visualizer.mediumVisualizer powerDensityMapPixmapWidth 200
par SimpleWlanFtp.visualizer.mediumVisualizer powerDensityMapPixmapHeight 120
par SimpleWlanFtp.visualizer.mediumVisualizer powerDensityMapZ 0
par SimpleWlanFtp.visualizer.mediumVisualizer powerDensityMapFigureXTickCount 3
par SimpleWlanFtp.visualizer.mediumVisualizer powerDensityMapFigureYTickCount 3
par SimpleWlanFtp.visualizer.mediumVisualizer displaySpectrums false
par SimpleWlanFtp.visualizer.mediumVisualizer spectrumMode "\"auto\""
attr enum total,signal,auto
par SimpleWlanFtp.visualizer.mediumVisualizer spectrumFigureWidth 200
par SimpleWlanFtp.visualizer.mediumVisualizer spectrumFigureHeight 120
par SimpleWlanFtp.visualizer.mediumVisualizer spectrumFigureXTickCount 3
par SimpleWlanFtp.visualizer.mediumVisualizer spectrumFigureYTickCount 5
par SimpleWlanFtp.visualizer.mediumVisualizer spectrumFigureInterpolationSize 5
par SimpleWlanFtp.visualizer.mediumVisualizer spectrumPlacementHint "\"bottomCenter\""
par SimpleWlanFtp.visualizer.mediumVisualizer spectrumPlacementPriority -1
par SimpleWlanFtp.visualizer.mediumVisualizer displaySpectrograms false
par SimpleWlanFtp.visualizer.mediumVisualizer spectrogramMode "\"auto\""
attr enum total,signal,auto
par SimpleWlanFtp.visualizer.mediumVisualizer spectrogramPixelMode "\"mean\""
attr enum sample,partition,mean
par SimpleWlanFtp.visualizer.mediumVisualizer spectrogramFigureWidth 200
par SimpleWlanFtp.visualizer.mediumVisualizer spectrogramFigureHeight 120
par SimpleWlanFtp.visualizer.mediumVisualizer spectrogramPixmapWidth 200
par SimpleWlanFtp.visualizer.mediumVisualizer spectrogramPixmapHeight 120
par SimpleWlanFtp.visualizer.mediumVisualizer spectrogramFigureXTickCount 3
par SimpleWlanFtp.visualizer.mediumVisualizer spectrogramFigureYTickCount 5
par SimpleWlanFtp.visualizer.mediumVisualizer spectrogramPlacementHint "\"bottomCenter\""
par SimpleWlanFtp.visualizer.mediumVisualizer spectrogramPlacementPriority -1
par SimpleWlanFtp.visualizer.mediumVisualizer zIndex 0
par SimpleWlanFtp.visualizer.mediumVisualizer signalShape "\"ring\""
attr enum ring,sphere
par SimpleWlanFtp.visualizer.mediumVisualizer signalOpacity 0.5
par SimpleWlanFtp.visualizer.mediumVisualizer signalRingCount 20
par SimpleWlanFtp.visualizer.mediumVisualizer signalRingSize 50m
attr unit m
par SimpleWlanFtp.visualizer.mediumVisualizer signalFadingDistance 50m
attr unit m
par SimpleWlanFtp.visualizer.mediumVisualizer signalFadingFactor 1.2
par SimpleWlanFtp.visualizer.mediumVisualizer signalWaveCount 20
par SimpleWlanFtp.visualizer.mediumVisualizer signalWaveLength 50m
attr unit m
par SimpleWlanFtp.visualizer.mediumVisualizer signalWaveWidth 10m
attr unit m
par SimpleWlanFtp.visualizer.mediumVisualizer signalWaveFadingAnimationSpeedFactor 1
par SimpleWlanFtp.visualizer.mediumVisualizer displayCommunicationHeat false
par SimpleWlanFtp.visualizer.obstacleLossVisualizer typename "\"inet.visualizer.canvas.physicallayer.TracingObstacleLossCanvasVisualizer\""
par SimpleWlanFtp.visualizer.obstacleLossVisualizer visualizationTargetModule "\"^.^\""
par SimpleWlanFtp.visualizer.obstacleLossVisualizer visualizationSubjectModule "\"^.^\""
par SimpleWlanFtp.visualizer.obstacleLossVisualizer tags "\"\""
par SimpleWlanFtp.visualizer.obstacleLossVisualizer displayIntersections false
par SimpleWlanFtp.visualizer.obstacleLossVisualizer intersectionLineColor "\"red\""
par SimpleWlanFtp.visualizer.obstacleLossVisualizer intersectionLineStyle "\"solid\""
par SimpleWlanFtp.visualizer.obstacleLossVisualizer intersectionLineWidth 1
par SimpleWlanFtp.visualizer.obstacleLossVisualizer displayFaceNormalVectors false
par SimpleWlanFtp.visualizer.obstacleLossVisualizer faceNormalLineColor "\"grey\""
par SimpleWlanFtp.visualizer.obstacleLossVisualizer faceNormalLineStyle "\"solid\""
par SimpleWlanFtp.visualizer.obstacleLossVisualizer faceNormalLineWidth 1
par SimpleWlanFtp.visualizer.obstacleLossVisualizer fadeOutMode "\"realTime\""
attr enum realTime,animationTime,simulationTime
par SimpleWlanFtp.visualizer.obstacleLossVisualizer fadeOutTime 1s
attr unit s
par SimpleWlanFtp.visualizer.obstacleLossVisualizer fadeOutAnimationSpeed 0
par SimpleWlanFtp.visualizer.obstacleLossVisualizer zIndex 0
par SimpleWlanFtp.visualizer.packetDropVisualizer typename "\"inet.visualizer.canvas.common.PacketDropCanvasVisualizer\""
par SimpleWlanFtp.visualizer.packetDropVisualizer visualizationTargetModule "\"^.^\""
par SimpleWlanFtp.visualizer.packetDropVisualizer visualizationSubjectModule "\"^.^\""
par SimpleWlanFtp.visualizer.packetDropVisualizer tags "\"\""
par SimpleWlanFtp.visualizer.packetDropVisualizer displayPacketDrops false
par SimpleWlanFtp.visualizer.packetDropVisualizer nodeFilter "\"*\""
attr mutable ""
par SimpleWlanFtp.visualizer.packetDropVisualizer interfaceFilter "\"*\""
attr mutable ""
par SimpleWlanFtp.visualizer.packetDropVisualizer packetFilter "(omnetpp::cValueHolder)holder: \"*\""
attr mutable ""
par SimpleWlanFtp.visualizer.packetDropVisualizer detailsFilter "\"*\""
attr mutable ""
par SimpleWlanFtp.visualizer.packetDropVisualizer icon "\"msg/packet_s\""
par SimpleWlanFtp.visualizer.packetDropVisualizer iconTintAmount 1
par SimpleWlanFtp.visualizer.packetDropVisualizer iconTintColor "\"dark\""
par SimpleWlanFtp.visualizer.packetDropVisualizer labelFormat "\"%n\""
attr mutable ""
par SimpleWlanFtp.visualizer.packetDropVisualizer labelFont "\"<default>\""
par SimpleWlanFtp.visualizer.packetDropVisualizer labelColor "\"black\""
par SimpleWlanFtp.visualizer.packetDropVisualizer fadeOutMode "\"realTime\""
attr enum realTime,animationTime,simulationTime
par SimpleWlanFtp.visualizer.packetDropVisualizer fadeOutTime 1s
attr unit s
par SimpleWlanFtp.visualizer.packetDropVisualizer fadeOutAnimationSpeed 0
par SimpleWlanFtp.visualizer.packetDropVisualizer zIndex 10
par SimpleWlanFtp.visualizer.packetDropVisualizer dx 32
par SimpleWlanFtp.visualizer.packetDropVisualizer dy 64
par SimpleWlanFtp.visualizer.packetFlowVisualizer typename "\"inet.visualizer.canvas.flow.PacketFlowCanvasVisualizer\""
par SimpleWlanFtp.visualizer.packetFlowVisualizer visualizationTargetModule "\"^.^\""
par SimpleWlanFtp.visualizer.packetFlowVisualizer visualizationSubjectModule "\"^.^\""
par SimpleWlanFtp.visualizer.packetFlowVisualizer tags "\"\""
par SimpleWlanFtp.visualizer.packetFlowVisualizer displayRoutes false
par SimpleWlanFtp.visualizer.packetFlowVisualizer startPathSignal "\"packetFlowStarted\""
par SimpleWlanFtp.visualizer.packetFlowVisualizer extendPathSignal "\"packetReceivedFromLower\""
par SimpleWlanFtp.visualizer.packetFlowVisualizer endPathSignal "\"packetFlowEnded\""
par SimpleWlanFtp.visualizer.packetFlowVisualizer nodeFilter "\"*\""
attr mutable ""
par SimpleWlanFtp.visualizer.packetFlowVisualizer packetFilter "(omnetpp::cValueHolder)holder: \"*\""
attr mutable ""
par SimpleWlanFtp.visualizer.packetFlowVisualizer lineColor "\"dark\""
par SimpleWlanFtp.visualizer.packetFlowVisualizer lineStyle "\"dashed\""
par SimpleWlanFtp.visualizer.packetFlowVisualizer lineWidth 3
par SimpleWlanFtp.visualizer.packetFlowVisualizer lineSmooth false
par SimpleWlanFtp.visualizer.packetFlowVisualizer lineShift 16
par SimpleWlanFtp.visualizer.packetFlowVisualizer lineShiftMode "\"normal\""
par SimpleWlanFtp.visualizer.packetFlowVisualizer lineContactSpacing 3
par SimpleWlanFtp.visualizer.packetFlowVisualizer lineContactMode "\"rectangular\""
attr enum circular,rectangular
par SimpleWlanFtp.visualizer.packetFlowVisualizer labelFormat "\"%L %p pk (%l)\""
par SimpleWlanFtp.visualizer.packetFlowVisualizer labelFont "\"<default>, 8px\""
par SimpleWlanFtp.visualizer.packetFlowVisualizer labelColor "\"\""
par SimpleWlanFtp.visualizer.packetFlowVisualizer fadeOutMode "\"realTime\""
attr enum realTime,animationTime,simulationTime
par SimpleWlanFtp.visualizer.packetFlowVisualizer fadeOutTime 0s
attr unit s
par SimpleWlanFtp.visualizer.packetFlowVisualizer fadeOutAnimationSpeed 0
par SimpleWlanFtp.visualizer.packetFlowVisualizer zIndex 4
par SimpleWlanFtp.visualizer.queueVisualizer typename "\"inet.visualizer.canvas.common.QueueCanvasVisualizer\""
par SimpleWlanFtp.visualizer.queueVisualizer visualizationTargetModule "\"^.^\""
par SimpleWlanFtp.visualizer.queueVisualizer visualizationSubjectModule "\"^.^\""
par SimpleWlanFtp.visualizer.queueVisualizer tags "\"\""
par SimpleWlanFtp.visualizer.queueVisualizer networkNodeVisualizerModule "\"^.networkNodeVisualizer\""
par SimpleWlanFtp.visualizer.queueVisualizer displayQueues false
par SimpleWlanFtp.visualizer.queueVisualizer queueFilter "\"**\""
par SimpleWlanFtp.visualizer.queueVisualizer color "\"blue\""
par SimpleWlanFtp.visualizer.queueVisualizer width 8
par SimpleWlanFtp.visualizer.queueVisualizer height 24
par SimpleWlanFtp.visualizer.queueVisualizer spacing 2
par SimpleWlanFtp.visualizer.queueVisualizer placementHint "\"right\""
par SimpleWlanFtp.visualizer.queueVisualizer placementPriority 0
par SimpleWlanFtp.visualizer.queueVisualizer zIndex 10
par SimpleWlanFtp.visualizer.gateScheduleVisualizer typename "\"inet.visualizer.canvas.common.GateScheduleCanvasVisualizer\""
par SimpleWlanFtp.visualizer.gateScheduleVisualizer visualizationTargetModule "\"^.^\""
par SimpleWlanFtp.visualizer.gateScheduleVisualizer visualizationSubjectModule "\"^.^\""
par SimpleWlanFtp.visualizer.gateScheduleVisualizer tags "\"\""
par SimpleWlanFtp.visualizer.gateScheduleVisualizer networkNodeVisualizerModule "\"^.networkNodeVisualizer\""
par SimpleWlanFtp.visualizer.gateScheduleVisualizer displayGateSchedules false
par SimpleWlanFtp.visualizer.gateScheduleVisualizer labelFormat "\"%i %D\""
par SimpleWlanFtp.visualizer.gateScheduleVisualizer gateFilter "\"**\""
par SimpleWlanFtp.visualizer.gateScheduleVisualizer width 100
par SimpleWlanFtp.visualizer.gateScheduleVisualizer height 8
par SimpleWlanFtp.visualizer.gateScheduleVisualizer spacing 2
par SimpleWlanFtp.visualizer.gateScheduleVisualizer placementHint "\"right\""
par SimpleWlanFtp.visualizer.gateScheduleVisualizer placementPriority 0
par SimpleWlanFtp.visualizer.gateScheduleVisualizer displayDuration 0s
attr mutable ""
attr unit s
par SimpleWlanFtp.visualizer.gateScheduleVisualizer currentTimePosition 50
par SimpleWlanFtp.visualizer.gateScheduleVisualizer zIndex 10
par SimpleWlanFtp.visualizer.radioVisualizer typename "\"inet.visualizer.canvas.physicallayer.RadioCanvasVisualizer\""
par SimpleWlanFtp.visualizer.radioVisualizer visualizationTargetModule "\"^.^\""
par SimpleWlanFtp.visualizer.radioVisualizer visualizationSubjectModule "\"^.^\""
par SimpleWlanFtp.visualizer.radioVisualizer tags "\"\""
par SimpleWlanFtp.visualizer.radioVisualizer networkNodeVisualizerModule "\"^.networkNodeVisualizer\""
par SimpleWlanFtp.visualizer.radioVisualizer displayRadios false
par SimpleWlanFtp.visualizer.radioVisualizer displayRadioMode true
par SimpleWlanFtp.visualizer.radioVisualizer displayReceptionState true
par SimpleWlanFtp.visualizer.radioVisualizer displayTransmissionState true
par SimpleWlanFtp.visualizer.radioVisualizer displayAntennaLobes false
par SimpleWlanFtp.visualizer.radioVisualizer radioFilter "\"**\""
attr mutable ""
par SimpleWlanFtp.visualizer.radioVisualizer radioModeImages "\"block/process_vs block/timer_vs block/wrx_vs block/wtx_vs block/wrxtx_vs block/cogwheel_vs\""
par SimpleWlanFtp.visualizer.radioVisualizer receptionStateImages "\"- - misc/receiving misc/receiving\""
par SimpleWlanFtp.visualizer.radioVisualizer transmissionStateImages "\"- - misc/transmitting\""
par SimpleWlanFtp.visualizer.radioVisualizer width 16
par SimpleWlanFtp.visualizer.radioVisualizer height 16
par SimpleWlanFtp.visualizer.radioVisualizer placementHint "\"bottomRight\""
par SimpleWlanFtp.visualizer.radioVisualizer placementPriority 0
par SimpleWlanFtp.visualizer.radioVisualizer antennaLobeNormalize false
par SimpleWlanFtp.visualizer.radioVisualizer antennaLobeRelativeLabels false
par SimpleWlanFtp.visualizer.radioVisualizer antennaLobePlaneGlobal true
par SimpleWlanFtp.visualizer.radioVisualizer antennaLobePlane "\"view\""
attr enum view,xy,xz,yz
par SimpleWlanFtp.visualizer.radioVisualizer antennaLobeMode "\"logarithmic\""
attr enum logarithmic,linear
par SimpleWlanFtp.visualizer.radioVisualizer antennaLobeLogarithmicBase 10
par SimpleWlanFtp.visualizer.radioVisualizer antennaLobeLogarithmicScale 100
par SimpleWlanFtp.visualizer.radioVisualizer antennaLobeRadius 100
par SimpleWlanFtp.visualizer.radioVisualizer antennaLobeStep 10deg
attr unit deg
par SimpleWlanFtp.visualizer.radioVisualizer antennaLobeOpacity 0.25
par SimpleWlanFtp.visualizer.radioVisualizer antennaLobeLineSmooth true
par SimpleWlanFtp.visualizer.radioVisualizer antennaLobeLineColor "\"black\""
par SimpleWlanFtp.visualizer.radioVisualizer antennaLobeLineStyle "\"solid\""
par SimpleWlanFtp.visualizer.radioVisualizer antennaLobeLineWidth 1
par SimpleWlanFtp.visualizer.radioVisualizer antennaLobeFillColor "\"white\""
par SimpleWlanFtp.visualizer.radioVisualizer zIndex 10
par SimpleWlanFtp.visualizer.physicalLinkVisualizer typename "\"inet.visualizer.canvas.physicallayer.PhysicalLinkCanvasVisualizer\""
par SimpleWlanFtp.visualizer.physicalLinkVisualizer visualizationTargetModule "\"^.^\""
par SimpleWlanFtp.visualizer.physicalLinkVisualizer visualizationSubjectModule "\"^.^\""
par SimpleWlanFtp.visualizer.physicalLinkVisualizer tags "\"\""
par SimpleWlanFtp.visualizer.physicalLinkVisualizer displayLinks true
par SimpleWlanFtp.visualizer.physicalLinkVisualizer activityLevel "\"service\""
attr enum service,peer,protocol
par SimpleWlanFtp.visualizer.physicalLinkVisualizer nodeFilter "\"*\""
attr mutable ""
par SimpleWlanFtp.visualizer.physicalLinkVisualizer interfaceFilter "\"*\""
attr mutable ""
par SimpleWlanFtp.visualizer.physicalLinkVisualizer packetFilter "(omnetpp::cValueHolder)holder: \"*\""
attr mutable ""
par SimpleWlanFtp.visualizer.physicalLinkVisualizer lineColor "\"olive\""
par SimpleWlanFtp.visualizer.physicalLinkVisualizer lineStyle "\"dotted\""
par SimpleWlanFtp.visualizer.physicalLinkVisualizer lineWidth 3
par SimpleWlanFtp.visualizer.physicalLinkVisualizer lineShift 16
par SimpleWlanFtp.visualizer.physicalLinkVisualizer lineShiftMode "\"normal\""
par SimpleWlanFtp.visualizer.physicalLinkVisualizer lineContactSpacing 3
par SimpleWlanFtp.visualizer.physicalLinkVisualizer lineContactMode "\"rectangular\""
attr enum circular,rectangular
par SimpleWlanFtp.visualizer.physicalLinkVisualizer labelFormat "\"%n\""
par SimpleWlanFtp.visualizer.physicalLinkVisualizer labelFont "\"<default>, 8px\""
par SimpleWlanFtp.visualizer.physicalLinkVisualizer labelColor "\"olive\""
par SimpleWlanFtp.visualizer.physicalLinkVisualizer fadeOutMode "\"realTime\""
attr enum realTime,animationTime,simulationTime
par SimpleWlanFtp.visualizer.physicalLinkVisualizer fadeOutTime 1s
attr unit s
par SimpleWlanFtp.visualizer.physicalLinkVisualizer fadeOutAnimationSpeed 0
par SimpleWlanFtp.visualizer.physicalLinkVisualizer holdAnimationTime 0s
attr unit s
par SimpleWlanFtp.visualizer.physicalLinkVisualizer zIndex 1
par SimpleWlanFtp.visualizer.interfaceTableVisualizer typename "\"inet.visualizer.canvas.linklayer.InterfaceTableCanvasVisualizer\""
par SimpleWlanFtp.visualizer.interfaceTableVisualizer visualizationTargetModule "\"^.^\""
par SimpleWlanFtp.visualizer.interfaceTableVisualizer visualizationSubjectModule "\"^.^\""
par SimpleWlanFtp.visualizer.interfaceTableVisualizer tags "\"\""
par SimpleWlanFtp.visualizer.interfaceTableVisualizer networkNodeVisualizerModule "\"^.networkNodeVisualizer\""
par SimpleWlanFtp.visualizer.interfaceTableVisualizer displayInterfaceTables false
par SimpleWlanFtp.visualizer.interfaceTableVisualizer displayWiredInterfacesAtConnections true
par SimpleWlanFtp.visualizer.interfaceTableVisualizer displayBackground false
par SimpleWlanFtp.visualizer.interfaceTableVisualizer nodeFilter "\"*\""
attr mutable ""
par SimpleWlanFtp.visualizer.interfaceTableVisualizer interfaceFilter "\"not(lo*)\""
attr mutable ""
par SimpleWlanFtp.visualizer.interfaceTableVisualizer format "\"%N %\\\\%a%/%l\""
attr mutable ""
par SimpleWlanFtp.visualizer.interfaceTableVisualizer placementHint "\"top\""
par SimpleWlanFtp.visualizer.interfaceTableVisualizer placementPriority 0
par SimpleWlanFtp.visualizer.interfaceTableVisualizer font "\"<default>\""
par SimpleWlanFtp.visualizer.interfaceTableVisualizer textColor "\"#005030\""
par SimpleWlanFtp.visualizer.interfaceTableVisualizer backgroundColor "\"white\""
par SimpleWlanFtp.visualizer.interfaceTableVisualizer opacity 1
par SimpleWlanFtp.visualizer.interfaceTableVisualizer zIndex 10
par SimpleWlanFtp.visualizer.dataLinkVisualizer typename "\"inet.visualizer.canvas.linklayer.DataLinkCanvasVisualizer\""
par SimpleWlanFtp.visualizer.dataLinkVisualizer visualizationTargetModule "\"^.^\""
par SimpleWlanFtp.visualizer.dataLinkVisualizer visualizationSubjectModule "\"^.^\""
par SimpleWlanFtp.visualizer.dataLinkVisualizer tags "\"\""
par SimpleWlanFtp.visualizer.dataLinkVisualizer displayLinks true
par SimpleWlanFtp.visualizer.dataLinkVisualizer activityLevel "\"service\""
attr enum service,peer,protocol
par SimpleWlanFtp.visualizer.dataLinkVisualizer nodeFilter "\"*\""
attr mutable ""
par SimpleWlanFtp.visualizer.dataLinkVisualizer interfaceFilter "\"*\""
attr mutable ""
par SimpleWlanFtp.visualizer.dataLinkVisualizer packetFilter "(omnetpp::cValueHolder)holder: \"*\""
attr mutable ""
par SimpleWlanFtp.visualizer.dataLinkVisualizer lineColor "\"darkcyan\""
par SimpleWlanFtp.visualizer.dataLinkVisualizer lineStyle "\"solid\""
par SimpleWlanFtp.visualizer.dataLinkVisualizer lineWidth 3
par SimpleWlanFtp.visualizer.dataLinkVisualizer lineShift 16
par SimpleWlanFtp.visualizer.dataLinkVisualizer lineShiftMode "\"normal\""
par SimpleWlanFtp.visualizer.dataLinkVisualizer lineContactSpacing 3
par SimpleWlanFtp.visualizer.dataLinkVisualizer lineContactMode "\"rectangular\""
attr enum circular,rectangular
par SimpleWlanFtp.visualizer.dataLinkVisualizer labelFormat "\"%n\""
par SimpleWlanFtp.visualizer.dataLinkVisualizer labelFont "\"<default>, 8px\""
par SimpleWlanFtp.visualizer.dataLinkVisualizer labelColor "\"darkcyan\""
par SimpleWlanFtp.visualizer.dataLinkVisualizer fadeOutMode "\"realTime\""
attr enum realTime,animationTime,simulationTime
par SimpleWlanFtp.visualizer.dataLinkVisualizer fadeOutTime 1s
attr unit s
par SimpleWlanFtp.visualizer.dataLinkVisualizer fadeOutAnimationSpeed 0
par SimpleWlanFtp.visualizer.dataLinkVisualizer holdAnimationTime 0s
attr unit s
par SimpleWlanFtp.visualizer.dataLinkVisualizer zIndex 2
par SimpleWlanFtp.visualizer.linkBreakVisualizer typename "\"inet.visualizer.canvas.linklayer.LinkBreakCanvasVisualizer\""
par SimpleWlanFtp.visualizer.linkBreakVisualizer visualizationTargetModule "\"^.^\""
par SimpleWlanFtp.visualizer.linkBreakVisualizer visualizationSubjectModule "\"^.^\""
par SimpleWlanFtp.visualizer.linkBreakVisualizer tags "\"\""
par SimpleWlanFtp.visualizer.linkBreakVisualizer displayLinkBreaks false
par SimpleWlanFtp.visualizer.linkBreakVisualizer nodeFilter "\"*\""
attr mutable ""
par SimpleWlanFtp.visualizer.linkBreakVisualizer interfaceFilter "\"*\""
attr mutable ""
par SimpleWlanFtp.visualizer.linkBreakVisualizer packetFilter "(omnetpp::cValueHolder)holder: \"*\""
attr mutable ""
par SimpleWlanFtp.visualizer.linkBreakVisualizer icon "\"status/stop\""
par SimpleWlanFtp.visualizer.linkBreakVisualizer iconTintAmount 0
par SimpleWlanFtp.visualizer.linkBreakVisualizer iconTintColor "\"\""
par SimpleWlanFtp.visualizer.linkBreakVisualizer fadeOutMode "\"realTime\""
attr enum realTime,animationTime,simulationTime
par SimpleWlanFtp.visualizer.linkBreakVisualizer fadeOutTime 1s
attr unit s
par SimpleWlanFtp.visualizer.linkBreakVisualizer fadeOutAnimationSpeed 0
par SimpleWlanFtp.visualizer.linkBreakVisualizer zIndex 2
par SimpleWlanFtp.visualizer.ieee80211Visualizer typename "\"inet.visualizer.canvas.linklayer.Ieee80211CanvasVisualizer\""
par SimpleWlanFtp.visualizer.ieee80211Visualizer visualizationTargetModule "\"^.^\""
par SimpleWlanFtp.visualizer.ieee80211Visualizer visualizationSubjectModule "\"^.^\""
par SimpleWlanFtp.visualizer.ieee80211Visualizer tags "\"\""
par SimpleWlanFtp.visualizer.ieee80211Visualizer networkNodeVisualizerModule "\"^.networkNodeVisualizer\""
par SimpleWlanFtp.visualizer.ieee80211Visualizer displayAssociations false
par SimpleWlanFtp.visualizer.ieee80211Visualizer nodeFilter "\"*\""
attr mutable ""
par SimpleWlanFtp.visualizer.ieee80211Visualizer interfaceFilter "\"*\""
attr mutable ""
par SimpleWlanFtp.visualizer.ieee80211Visualizer minPower -85dBm
attr unit dBm
par SimpleWlanFtp.visualizer.ieee80211Visualizer maxPower -50dBm
attr unit dBm
par SimpleWlanFtp.visualizer.ieee80211Visualizer icons "\"misc/signal_power_0 misc/signal_power_1 misc/signal_power_2 misc/signal_power_3\""
par SimpleWlanFtp.visualizer.ieee80211Visualizer iconColor "\"dark\""
par SimpleWlanFtp.visualizer.ieee80211Visualizer labelFont "\"<default>\""
par SimpleWlanFtp.visualizer.ieee80211Visualizer labelColor "\"black\""
par SimpleWlanFtp.visualizer.ieee80211Visualizer placementHint "\"top\""
par SimpleWlanFtp.visualizer.ieee80211Visualizer placementPriority 0
par SimpleWlanFtp.visualizer.ieee80211Visualizer zIndex 2
par SimpleWlanFtp.visualizer.networkRouteVisualizer typename "\"inet.visualizer.canvas.networklayer.NetworkRouteCanvasVisualizer\""
par SimpleWlanFtp.visualizer.networkRouteVisualizer visualizationTargetModule "\"^.^\""
par SimpleWlanFtp.visualizer.networkRouteVisualizer visualizationSubjectModule "\"^.^\""
par SimpleWlanFtp.visualizer.networkRouteVisualizer tags "\"\""
par SimpleWlanFtp.visualizer.networkRouteVisualizer displayRoutes true
par SimpleWlanFtp.visualizer.networkRouteVisualizer startPathSignal "\"packetReceivedFromUpper\""
par SimpleWlanFtp.visualizer.networkRouteVisualizer extendPathSignal "\"packetReceivedFromLower\""
par SimpleWlanFtp.visualizer.networkRouteVisualizer endPathSignal "\"packetSentToUpper\""
par SimpleWlanFtp.visualizer.networkRouteVisualizer nodeFilter "\"*\""
attr mutable ""
par SimpleWlanFtp.visualizer.networkRouteVisualizer packetFilter "(omnetpp::cValueHolder)holder: \"*\""
attr mutable ""
par SimpleWlanFtp.visualizer.networkRouteVisualizer lineColor "\"dark\""
par SimpleWlanFtp.visualizer.networkRouteVisualizer lineStyle "\"solid\""
par SimpleWlanFtp.visualizer.networkRouteVisualizer lineWidth 3
par SimpleWlanFtp.visualizer.networkRouteVisualizer lineSmooth false
par SimpleWlanFtp.visualizer.networkRouteVisualizer lineShift 16
par SimpleWlanFtp.visualizer.networkRouteVisualizer lineShiftMode "\"normal\""
par SimpleWlanFtp.visualizer.networkRouteVisualizer lineContactSpacing 3
par SimpleWlanFtp.visualizer.networkRouteVisualizer lineContactMode "\"rectangular\""
attr enum circular,rectangular
par SimpleWlanFtp.visualizer.networkRouteVisualizer labelFormat "\"%n\""
par SimpleWlanFtp.visualizer.networkRouteVisualizer labelFont "\"<default>, 8px\""
par SimpleWlanFtp.visualizer.networkRouteVisualizer labelColor "\"\""
par SimpleWlanFtp.visualizer.networkRouteVisualizer fadeOutMode "\"realTime\""
attr enum realTime,animationTime,simulationTime
par SimpleWlanFtp.visualizer.networkRouteVisualizer fadeOutTime 1s
attr unit s
par SimpleWlanFtp.visualizer.networkRouteVisualizer fadeOutAnimationSpeed 0
par SimpleWlanFtp.visualizer.networkRouteVisualizer zIndex 3
par SimpleWlanFtp.visualizer.routingTableVisualizer typename "\"inet.visualizer.canvas.networklayer.RoutingTableCanvasVisualizer\""
par SimpleWlanFtp.visualizer.routingTableVisualizer visualizationTargetModule "\"^.^\""
par SimpleWlanFtp.visualizer.routingTableVisualizer visualizationSubjectModule "\"^.^\""
par SimpleWlanFtp.visualizer.routingTableVisualizer tags "\"\""
par SimpleWlanFtp.visualizer.routingTableVisualizer displayRoutingTables false
par SimpleWlanFtp.visualizer.routingTableVisualizer displayRoutesIndividually true
par SimpleWlanFtp.visualizer.routingTableVisualizer displayLabels true
par SimpleWlanFtp.visualizer.routingTableVisualizer destinationFilter "\"*\""
attr mutable ""
par SimpleWlanFtp.visualizer.routingTableVisualizer nodeFilter "\"*\""
attr mutable ""
par SimpleWlanFtp.visualizer.routingTableVisualizer lineColor "\"black\""
par SimpleWlanFtp.visualizer.routingTableVisualizer lineStyle "\"solid\""
par SimpleWlanFtp.visualizer.routingTableVisualizer lineWidth 2
par SimpleWlanFtp.visualizer.routingTableVisualizer lineShift 16
par SimpleWlanFtp.visualizer.routingTableVisualizer lineShiftMode "\"normal\""
par SimpleWlanFtp.visualizer.routingTableVisualizer lineContactSpacing 3
par SimpleWlanFtp.visualizer.routingTableVisualizer lineContactMode "\"rectangular\""
attr enum circular,rectangular
par SimpleWlanFtp.visualizer.routingTableVisualizer labelFormat "\"%d/%m -> %g (%n)\""
attr mutable ""
par SimpleWlanFtp.visualizer.routingTableVisualizer labelFont "\"<default>, 8px\""
par SimpleWlanFtp.visualizer.routingTableVisualizer labelColor "\"black\""
par SimpleWlanFtp.visualizer.routingTableVisualizer zIndex 0
par SimpleWlanFtp.visualizer.transportRouteVisualizer typename "\"inet.visualizer.canvas.transportlayer.TransportRouteCanvasVisualizer\""
par SimpleWlanFtp.visualizer.transportRouteVisualizer visualizationTargetModule "\"^.^\""
par SimpleWlanFtp.visualizer.transportRouteVisualizer visualizationSubjectModule "\"^.^\""
par SimpleWlanFtp.visualizer.transportRouteVisualizer tags "\"\""
par SimpleWlanFtp.visualizer.transportRouteVisualizer displayRoutes false
par SimpleWlanFtp.visualizer.transportRouteVisualizer startPathSignal "\"packetReceivedFromUpper\""
par SimpleWlanFtp.visualizer.transportRouteVisualizer extendPathSignal "\"packetReceivedFromLower\""
par SimpleWlanFtp.visualizer.transportRouteVisualizer endPathSignal "\"packetSentToUpper\""
par SimpleWlanFtp.visualizer.transportRouteVisualizer nodeFilter "\"*\""
attr mutable ""
par SimpleWlanFtp.visualizer.transportRouteVisualizer packetFilter "(omnetpp::cValueHolder)holder: \"*\""
attr mutable ""
par SimpleWlanFtp.visualizer.transportRouteVisualizer lineColor "\"dark\""
par SimpleWlanFtp.visualizer.transportRouteVisualizer lineStyle "\"solid\""
par SimpleWlanFtp.visualizer.transportRouteVisualizer lineWidth 3
par SimpleWlanFtp.visualizer.transportRouteVisualizer lineSmooth false
par SimpleWlanFtp.visualizer.transportRouteVisualizer lineShift 16
par SimpleWlanFtp.visualizer.transportRouteVisualizer lineShiftMode "\"normal\""
par SimpleWlanFtp.visualizer.transportRouteVisualizer lineContactSpacing 3
par SimpleWlanFtp.visualizer.transportRouteVisualizer lineContactMode "\"rectangular\""
attr enum circular,rectangular
par SimpleWlanFtp.visualizer.transportRouteVisualizer labelFormat "\"%n\""
par SimpleWlanFtp.visualizer.transportRouteVisualizer labelFont "\"<default>, 8px\""
par SimpleWlanFtp.visualizer.transportRouteVisualizer labelColor "\"\""
par SimpleWlanFtp.visualizer.transportRouteVisualizer fadeOutMode "\"realTime\""
attr enum realTime,animationTime,simulationTime
par SimpleWlanFtp.visualizer.transportRouteVisualizer fadeOutTime 1s
attr unit s
par SimpleWlanFtp.visualizer.transportRouteVisualizer fadeOutAnimationSpeed 0
par SimpleWlanFtp.visualizer.transportRouteVisualizer zIndex 4
par SimpleWlanFtp.visualizer.transportConnectionVisualizer typename "\"inet.visualizer.canvas.transportlayer.TransportConnectionCanvasVisualizer\""
par SimpleWlanFtp.visualizer.transportConnectionVisualizer visualizationTargetModule "\"^.^\""
par SimpleWlanFtp.visualizer.transportConnectionVisualizer visualizationSubjectModule "\"^.^\""
par SimpleWlanFtp.visualizer.transportConnectionVisualizer tags "\"\""
par SimpleWlanFtp.visualizer.transportConnectionVisualizer networkNodeVisualizerModule "\"^.networkNodeVisualizer\""
par SimpleWlanFtp.visualizer.transportConnectionVisualizer displayTransportConnections true
par SimpleWlanFtp.visualizer.transportConnectionVisualizer sourceNodeFilter "\"*\""
attr mutable ""
par SimpleWlanFtp.visualizer.transportConnectionVisualizer sourcePortFilter "\"*\""
attr mutable ""
par SimpleWlanFtp.visualizer.transportConnectionVisualizer destinationNodeFilter "\"*\""
attr mutable ""
par SimpleWlanFtp.visualizer.transportConnectionVisualizer destinationPortFilter "\"*\""
attr mutable ""
par SimpleWlanFtp.visualizer.transportConnectionVisualizer icon "\"misc/marker_s\""
par SimpleWlanFtp.visualizer.transportConnectionVisualizer iconColor "\"dark\""
par SimpleWlanFtp.visualizer.transportConnectionVisualizer labelFont "\"<default>\""
par SimpleWlanFtp.visualizer.transportConnectionVisualizer labelColor "\"black\""
par SimpleWlanFtp.visualizer.transportConnectionVisualizer placementHint "\"top\""
par SimpleWlanFtp.visualizer.transportConnectionVisualizer placementPriority 0
par SimpleWlanFtp.visualizer.transportConnectionVisualizer zIndex 4
par SimpleWlanFtp.visualizer.failureProtectionConfigurationVisualizer typename "\"inet.visualizer.canvas.configurator.FailureProtectionConfigurationCanvasVisualizer\""
par SimpleWlanFtp.visualizer.failureProtectionConfigurationVisualizer visualizationTargetModule "\"^.^\""
par SimpleWlanFtp.visualizer.failureProtectionConfigurationVisualizer visualizationSubjectModule "\"^.^\""
par SimpleWlanFtp.visualizer.failureProtectionConfigurationVisualizer tags "\"\""
par SimpleWlanFtp.visualizer.failureProtectionConfigurationVisualizer displayTrees false
par SimpleWlanFtp.visualizer.failureProtectionConfigurationVisualizer lineColor "\"dark\""
par SimpleWlanFtp.visualizer.failureProtectionConfigurationVisualizer lineStyle "\"solid\""
par SimpleWlanFtp.visualizer.failureProtectionConfigurationVisualizer lineWidth 3
par SimpleWlanFtp.visualizer.failureProtectionConfigurationVisualizer lineSmooth false
par SimpleWlanFtp.visualizer.failureProtectionConfigurationVisualizer lineShift 16
par SimpleWlanFtp.visualizer.failureProtectionConfigurationVisualizer lineShiftMode "\"normal\""
par SimpleWlanFtp.visualizer.failureProtectionConfigurationVisualizer lineContactSpacing 3
par SimpleWlanFtp.visualizer.failureProtectionConfigurationVisualizer lineContactMode "\"rectangular\""
attr enum circular,rectangular
par SimpleWlanFtp.visualizer.failureProtectionConfigurationVisualizer failureProtectionConfiguratorModule "\"failureProtectionConfigurator\""
par SimpleWlanFtp.visualizer.failureProtectionConfigurationVisualizer streamFilter "\"*\""
par SimpleWlanFtp.visualizer.failureProtectionConfigurationVisualizer zIndex 3
par SimpleWlanFtp.visualizer.streamRedundancyConfigurationVisualizer typename "\"inet.visualizer.canvas.configurator.StreamRedundancyConfigurationCanvasVisualizer\""
par SimpleWlanFtp.visualizer.streamRedundancyConfigurationVisualizer visualizationTargetModule "\"^.^\""
par SimpleWlanFtp.visualizer.streamRedundancyConfigurationVisualizer visualizationSubjectModule "\"^.^\""
par SimpleWlanFtp.visualizer.streamRedundancyConfigurationVisualizer tags "\"\""
par SimpleWlanFtp.visualizer.streamRedundancyConfigurationVisualizer displayTrees false
par SimpleWlanFtp.visualizer.streamRedundancyConfigurationVisualizer lineColor "\"dark\""
par SimpleWlanFtp.visualizer.streamRedundancyConfigurationVisualizer lineStyle "\"solid\""
par SimpleWlanFtp.visualizer.streamRedundancyConfigurationVisualizer lineWidth 3
par SimpleWlanFtp.visualizer.streamRedundancyConfigurationVisualizer lineSmooth false
par SimpleWlanFtp.visualizer.streamRedundancyConfigurationVisualizer lineShift 16
par SimpleWlanFtp.visualizer.streamRedundancyConfigurationVisualizer lineShiftMode "\"normal\""
par SimpleWlanFtp.visualizer.streamRedundancyConfigurationVisualizer lineContactSpacing 3
par SimpleWlanFtp.visualizer.streamRedundancyConfigurationVisualizer lineContactMode "\"rectangular\""
attr enum circular,rectangular
par SimpleWlanFtp.visualizer.streamRedundancyConfigurationVisualizer streamRedundancyConfiguratorModule "\"streamRedundancyConfigurator\""
par SimpleWlanFtp.visualizer.streamRedundancyConfigurationVisualizer streamFilter "\"*\""
par SimpleWlanFtp.visualizer.streamRedundancyConfigurationVisualizer zIndex 3
par SimpleWlanFtp.visualizer typename "\"inet.visualizer.canvas.integrated.IntegratedCanvasVisualizer\""
par SimpleWlanFtp.configurator typename "\"inet.networklayer.configurator.ipv4.Ipv4NetworkConfigurator\""
par SimpleWlanFtp.configurator minLinkWeight 0.001
par SimpleWlanFtp.configurator configureIsolatedNetworksSeparatly false
par SimpleWlanFtp.configurator config "<config>...</config> at content:1"
par SimpleWlanFtp.configurator assignAddresses true
par SimpleWlanFtp.configurator assignUniqueAddresses true
par SimpleWlanFtp.configurator assignDisjunctSubnetAddresses true
par SimpleWlanFtp.configurator addStaticRoutes true
par SimpleWlanFtp.configurator addDefaultRoutes true
par SimpleWlanFtp.configurator addSubnetRoutes true
par SimpleWlanFtp.configurator addDirectRoutes true
par SimpleWlanFtp.configurator optimizeRoutes true
par SimpleWlanFtp.configurator dumpTopology false
par SimpleWlanFtp.configurator dumpLinks false
par SimpleWlanFtp.configurator dumpAddresses false
par SimpleWlanFtp.configurator dumpRoutes false
par SimpleWlanFtp.configurator dumpConfig "\"\""
par SimpleWlanFtp.radioMedium.propagation typename "\"inet.physicallayer.wireless.common.propagation.ConstantSpeedPropagation\""
par SimpleWlanFtp.radioMedium.propagation propagationSpeed 2.99792e+08mps
attr unit mps
par SimpleWlanFtp.radioMedium.propagation ignoreMovementDuringTransmission true
par SimpleWlanFtp.radioMedium.propagation ignoreMovementDuringPropagation true
par SimpleWlanFtp.radioMedium.propagation ignoreMovementDuringReception true
scalar SimpleWlanFtp.radioMedium.propagation "Arrival computation count" 0
par SimpleWlanFtp.radioMedium.analogModel typename "\"inet.physicallayer.wireless.common.analogmodel.packetlevel.ScalarAnalogModel\""
par SimpleWlanFtp.radioMedium.analogModel ignorePartialInterference false
par SimpleWlanFtp.radioMedium.backgroundNoise typename "\"inet.physicallayer.wireless.common.backgroundnoise.IsotropicScalarBackgroundNoise\""
par SimpleWlanFtp.radioMedium.backgroundNoise power -110dBm
attr unit dBm
par SimpleWlanFtp.radioMedium.backgroundNoise bandwidth "nan Hz"
attr unit Hz
par SimpleWlanFtp.radioMedium.pathLoss typename "\"inet.physicallayer.wireless.common.pathloss.FreeSpacePathLoss\""
par SimpleWlanFtp.radioMedium.pathLoss alpha 2
par SimpleWlanFtp.radioMedium.pathLoss systemLoss 0dB
attr unit dB
par SimpleWlanFtp.radioMedium.mediumLimitCache typename "\"inet.physicallayer.wireless.common.medium.MediumLimitCache\""
par SimpleWlanFtp.radioMedium.mediumLimitCache centerFrequency 2.4e+09Hz
attr unit Hz
par SimpleWlanFtp.radioMedium.mediumLimitCache maxSpeed "nan mps"
attr unit mps
par SimpleWlanFtp.radioMedium.mediumLimitCache maxTransmissionPower "nan W"
attr unit W
par SimpleWlanFtp.radioMedium.mediumLimitCache minInterferencePower -110dBm
attr unit dBm
par SimpleWlanFtp.radioMedium.mediumLimitCache minReceptionPower -85dBm
attr unit dBm
par SimpleWlanFtp.radioMedium.mediumLimitCache maxAntennaGain 0dB
attr unit dB
par SimpleWlanFtp.radioMedium.mediumLimitCache minInterferenceTime 1e-12s
attr unit s
par SimpleWlanFtp.radioMedium.mediumLimitCache maxTransmissionDuration 0.01s
attr unit s
par SimpleWlanFtp.radioMedium.mediumLimitCache maxCommunicationRange "nan m"
attr unit m
par SimpleWlanFtp.radioMedium.mediumLimitCache maxInterferenceRange "nan m"
attr unit m
par SimpleWlanFtp.radioMedium.communicationCache typename "\"inet.physicallayer.wireless.common.communicationcache.VectorCommunicationCache\""
par SimpleWlanFtp.radioMedium typename "\"inet.physicallayer.wireless.ieee80211.packetlevel.Ieee80211ScalarRadioMedium\""
par SimpleWlanFtp.radioMedium physicalEnvironmentModule "\"physicalEnvironment\""
par SimpleWlanFtp.radioMedium signalAnalogRepresentation "\"scalar\""
attr enum unitDisk,scalar,dimensional
par SimpleWlanFtp.radioMedium rangeFilter "\"\""
par SimpleWlanFtp.radioMedium radioModeFilter false
par SimpleWlanFtp.radioMedium listeningFilter false
par SimpleWlanFtp.radioMedium macAddressFilter false
par SimpleWlanFtp.radioMedium recordTransmissionLog false
par SimpleWlanFtp.radioMedium recordReceptionLog false
scalar SimpleWlanFtp.radioMedium "transmission count" 1000
scalar SimpleWlanFtp.radioMedium "signal send count" 0
scalar SimpleWlanFtp.radioMedium "reception computation count" 0
scalar SimpleWlanFtp.radioMedium "interference computation count" 1002
scalar SimpleWlanFtp.radioMedium "reception decision computation count" 0
scalar SimpleWlanFtp.radioMedium "listening decision computation count" 1002
scalar SimpleWlanFtp.radioMedium "reception cache hit" nan
attr unit %
scalar SimpleWlanFtp.radioMedium "interference cache hit" nan
attr unit %
scalar SimpleWlanFtp.radioMedium "noise cache hit" nan
attr unit %
scalar SimpleWlanFtp.radioMedium "snir cache hit" nan
attr unit %
scalar SimpleWlanFtp.radioMedium "reception decision cache hit" nan
attr unit %
scalar SimpleWlanFtp.radioMedium "reception result cache hit" nan
attr unit %
par SimpleWlanFtp.ftp_cli.mobility typename "\"inet.mobility.static.StationaryMobility\""
par SimpleWlanFtp.ftp_cli.mobility subjectModule "\"^\""
par SimpleWlanFtp.ftp_cli.mobility coordinateSystemModule "\"\""
par SimpleWlanFtp.ftp_cli.mobility displayStringTextFormat "\"p: %p\\nv: %v\""
attr mutable ""
par SimpleWlanFtp.ftp_cli.mobility updateDisplayString true
par SimpleWlanFtp.ftp_cli.mobility constraintAreaMinX 0m
attr unit m
par SimpleWlanFtp.ftp_cli.mobility constraintAreaMinY 0m
attr unit m
par SimpleWlanFtp.ftp_cli.mobility constraintAreaMinZ 0m
attr unit m
par SimpleWlanFtp.ftp_cli.mobility constraintAreaMaxX 250m
attr unit m
par SimpleWlanFtp.ftp_cli.mobility constraintAreaMaxY 30m
attr unit m
par SimpleWlanFtp.ftp_cli.mobility constraintAreaMaxZ 0m
attr unit m
par SimpleWlanFtp.ftp_cli.mobility initialX 50m
attr unit m
par SimpleWlanFtp.ftp_cli.mobility initialY 15m
attr unit m
par SimpleWlanFtp.ftp_cli.mobility initialZ 0m
attr unit m
par SimpleWlanFtp.ftp_cli.mobility initialLatitude "nan deg"
attr unit deg
par SimpleWlanFtp.ftp_cli.mobility initialLongitude "nan deg"
attr unit deg
par SimpleWlanFtp.ftp_cli.mobility initialAltitude 0m
attr unit m
par SimpleWlanFtp.ftp_cli.mobility initialHeading 0deg
attr unit deg
par SimpleWlanFtp.ftp_cli.mobility initialElevation 0deg
attr unit deg
par SimpleWlanFtp.ftp_cli.mobility initialBank 0deg
attr unit deg
par SimpleWlanFtp.ftp_cli.mobility initFromDisplayString false
par SimpleWlanFtp.ftp_cli.mobility updateFromDisplayString true
par SimpleWlanFtp.ftp_cli.interfaceTable typename "\"inet.networklayer.common.InterfaceTable\""
par SimpleWlanFtp.ftp_cli.interfaceTable displayAddresses false
par SimpleWlanFtp.ftp_cli.cb typename "\"inet.common.MessageDispatcher\""
par SimpleWlanFtp.ftp_cli.cb displayStringTextFormat "\"processed %p pk (%l)\""
par SimpleWlanFtp.ftp_cli.cb forwardServiceRegistration true
par SimpleWlanFtp.ftp_cli.cb forwardProtocolRegistration true
par SimpleWlanFtp.ftp_cli.bl typename "\"inet.common.MessageDispatcher\""
par SimpleWlanFtp.ftp_cli.bl displayStringTextFormat "\"processed %p pk (%l)\""
par SimpleWlanFtp.ftp_cli.bl forwardServiceRegistration true
par SimpleWlanFtp.ftp_cli.bl forwardProtocolRegistration true
par SimpleWlanFtp.ftp_cli.li typename "\"inet.common.MessageDispatcher\""
par SimpleWlanFtp.ftp_cli.li displayStringTextFormat "\"processed %p pk (%l)\""
par SimpleWlanFtp.ftp_cli.li forwardServiceRegistration true
par SimpleWlanFtp.ftp_cli.li forwardProtocolRegistration true
par SimpleWlanFtp.ftp_cli.lo[0].upperLayerIn.channel typename "\"ned.IdealChannel\""
par SimpleWlanFtp.ftp_cli.lo[0].lo.upperLayerOut.channel typename "\"ned.IdealChannel\""
par SimpleWlanFtp.ftp_cli.lo[0].lo typename "\"inet.linklayer.loopback.Loopback\""
par SimpleWlanFtp.ftp_cli.lo[0].lo interfaceTableModule "\"SimpleWlanFtp.ftp_cli.interfaceTable\""
par SimpleWlanFtp.ftp_cli.lo[0].lo mtu 4470B
attr unit B
scalar SimpleWlanFtp.ftp_cli.lo[0].lo rcvdPkFromHl:count 0
attr interpolationmode none
attr recordingmode count
attr source packetReceivedFromUpper
attr title "packets received from higher layer, count"
scalar SimpleWlanFtp.ftp_cli.lo[0].lo rcvdPkFromHl:sum(packetBytes) 0
attr interpolationmode none
attr recordingmode sum(packetBytes)
attr source packetReceivedFromUpper
attr title "packets received from higher layer, sum(packetBytes)"
scalar SimpleWlanFtp.ftp_cli.lo[0].lo passedUpPk:count 0
attr interpolationmode none
attr recordingmode count
attr source packetSentToUpper
attr title "packets passed to higher layer, count"
scalar SimpleWlanFtp.ftp_cli.lo[0].lo passedUpPk:sum(packetBytes) 0
attr interpolationmode none
attr recordingmode sum(packetBytes)
attr source packetSentToUpper
attr title "packets passed to higher layer, sum(packetBytes)"
par SimpleWlanFtp.ftp_cli.lo[0] typename "\"inet.linklayer.loopback.LoopbackInterface\""
par SimpleWlanFtp.ftp_cli.lo[0] displayStringTextFormat "\"%a (%i)\\n%m\""
par SimpleWlanFtp.ftp_cli.lo[0] recordPcap false
par SimpleWlanFtp.ftp_cli.lo[0] numPcapRecorders 0
par SimpleWlanFtp.ftp_cli.lo[0] interfaceTableModule "\"SimpleWlanFtp.ftp_cli.interfaceTable\""
scalar SimpleWlanFtp.ftp_cli.lo[0] packetDropInterfaceDown:count 0
attr interpolationmode none
attr recordingmode count
attr source packetDropReasonIsInterfaceDown(packetDropped)
attr title "packet drops: interface down, count"
scalar SimpleWlanFtp.ftp_cli.lo[0] packetDropInterfaceDown:sum(packetBytes) 0
attr interpolationmode none
attr recordingmode sum(packetBytes)
attr source packetDropReasonIsInterfaceDown(packetDropped)
attr title "packet drops: interface down, sum(packetBytes)"
scalar SimpleWlanFtp.ftp_cli.lo[0] packetDropNoCarrier:count 0
attr interpolationmode none
attr recordingmode count
attr source packetDropReasonIsNoCarrier(packetDropped)
attr title "packet drops: no carrier, count"
scalar SimpleWlanFtp.ftp_cli.lo[0] packetDropNoCarrier:sum(packetBytes) 0
attr interpolationmode none
attr recordingmode sum(packetBytes)
attr source packetDropReasonIsNoCarrier(packetDropped)
attr title "packet drops: no carrier, sum(packetBytes)"
par SimpleWlanFtp.ftp_cli.ipv4.transportIn.channel typename "\"ned.IdealChannel\""
par SimpleWlanFtp.ftp_cli.ipv4.up.out[0].channel typename "\"ned.IdealChannel\""
par SimpleWlanFtp.ftp_cli.ipv4.lp.out[2].channel typename "\"ned.IdealChannel\""
par SimpleWlanFtp.ftp_cli.ipv4.ifIn.channel typename "\"ned.IdealChannel\""
par SimpleWlanFtp.ftp_cli.ipv4.configurator typename "\"inet.networklayer.configurator.ipv4.Ipv4NodeConfigurator\""
par SimpleWlanFtp.ftp_cli.ipv4.configurator interfaceTableModule "\"SimpleWlanFtp.ftp_cli.interfaceTable\""
par SimpleWlanFtp.ftp_cli.ipv4.configurator routingTableModule "\"SimpleWlanFtp.ftp_cli.ipv4.routingTable\""
par SimpleWlanFtp.ftp_cli.ipv4.configurator networkConfiguratorModule "\"configurator\""
par SimpleWlanFtp.ftp_cli.ipv4.configurator configureRoutingTable true
par SimpleWlanFtp.ftp_cli.ipv4.routingTable typename "\"inet.networklayer.ipv4.Ipv4RoutingTable\""
par SimpleWlanFtp.ftp_cli.ipv4.routingTable interfaceTableModule "\"SimpleWlanFtp.ftp_cli.interfaceTable\""
par SimpleWlanFtp.ftp_cli.ipv4.routingTable routerId "\"auto\""
par SimpleWlanFtp.ftp_cli.ipv4.routingTable netmaskRoutes "\"*\""
par SimpleWlanFtp.ftp_cli.ipv4.routingTable forwarding false
par SimpleWlanFtp.ftp_cli.ipv4.routingTable multicastForwarding false
par SimpleWlanFtp.ftp_cli.ipv4.routingTable useAdminDist false
par SimpleWlanFtp.ftp_cli.ipv4.routingTable routingFile "\"\""
par SimpleWlanFtp.ftp_cli.ipv4.natTable typename "\"inet.networklayer.ipv4.Ipv4NatTable\""
par SimpleWlanFtp.ftp_cli.ipv4.natTable networkProtocolModule "\"^.ip\""
par SimpleWlanFtp.ftp_cli.ipv4.natTable config "<config/> at content:1"
par SimpleWlanFtp.ftp_cli.ipv4.up typename "\"inet.common.MessageDispatcher\""
par SimpleWlanFtp.ftp_cli.ipv4.up displayStringTextFormat "\"processed %p pk (%l)\""
par SimpleWlanFtp.ftp_cli.ipv4.up forwardServiceRegistration true
par SimpleWlanFtp.ftp_cli.ipv4.up forwardProtocolRegistration true
par SimpleWlanFtp.ftp_cli.ipv4.igmp typename "\"inet.networklayer.ipv4.Igmpv2\""
par SimpleWlanFtp.ftp_cli.ipv4.igmp interfaceTableModule "\"SimpleWlanFtp.ftp_cli.interfaceTable\""
par SimpleWlanFtp.ftp_cli.ipv4.igmp routingTableModule "\"SimpleWlanFtp.ftp_cli.ipv4.routingTable\""
par SimpleWlanFtp.ftp_cli.ipv4.igmp crcMode "\"declared\""
attr enum declared,computed
par SimpleWlanFtp.ftp_cli.ipv4.igmp enabled true
par SimpleWlanFtp.ftp_cli.ipv4.igmp robustnessVariable 2
par SimpleWlanFtp.ftp_cli.ipv4.igmp queryInterval 125s
attr unit s
par SimpleWlanFtp.ftp_cli.ipv4.igmp queryResponseInterval 10s
attr unit s
par SimpleWlanFtp.ftp_cli.ipv4.igmp groupMembershipInterval 260s
attr unit s
par SimpleWlanFtp.ftp_cli.ipv4.igmp otherQuerierPresentInterval 255s
attr unit s
par SimpleWlanFtp.ftp_cli.ipv4.igmp startupQueryInterval 31.25s
attr unit s
par SimpleWlanFtp.ftp_cli.ipv4.igmp startupQueryCount 2
par SimpleWlanFtp.ftp_cli.ipv4.igmp lastMemberQueryInterval 1s
attr unit s
par SimpleWlanFtp.ftp_cli.ipv4.igmp lastMemberQueryCount 2
par SimpleWlanFtp.ftp_cli.ipv4.igmp unsolicitedReportInterval 10s
attr unit s
par SimpleWlanFtp.ftp_cli.ipv4.icmp typename "\"inet.networklayer.ipv4.Icmp\""
par SimpleWlanFtp.ftp_cli.ipv4.icmp interfaceTableModule "\"SimpleWlanFtp.ftp_cli.interfaceTable\""
par SimpleWlanFtp.ftp_cli.ipv4.icmp routingTableModule "\"SimpleWlanFtp.ftp_cli.ipv4.routingTable\""
par SimpleWlanFtp.ftp_cli.ipv4.icmp crcMode "\"declared\""
attr enum declared,computed
attr mutable ""
par SimpleWlanFtp.ftp_cli.ipv4.icmp quoteLength 8B
attr mutable ""
attr unit B
par SimpleWlanFtp.ftp_cli.ipv4.mp typename "\"inet.common.MessageDispatcher\""
par SimpleWlanFtp.ftp_cli.ipv4.mp displayStringTextFormat "\"processed %p pk (%l)\""
par SimpleWlanFtp.ftp_cli.ipv4.mp forwardServiceRegistration true
par SimpleWlanFtp.ftp_cli.ipv4.mp forwardProtocolRegistration true
par SimpleWlanFtp.ftp_cli.ipv4.ip typename "\"inet.networklayer.ipv4.Ipv4\""
par SimpleWlanFtp.ftp_cli.ipv4.ip interfaceTableModule "\"SimpleWlanFtp.ftp_cli.interfaceTable\""
par SimpleWlanFtp.ftp_cli.ipv4.ip routingTableModule "\"SimpleWlanFtp.ftp_cli.ipv4.routingTable\""
par SimpleWlanFtp.ftp_cli.ipv4.ip arpModule "\"SimpleWlanFtp.ftp_cli.ipv4.arp\""
par SimpleWlanFtp.ftp_cli.ipv4.ip icmpModule "\"SimpleWlanFtp.ftp_cli.ipv4.icmp\""
par SimpleWlanFtp.ftp_cli.ipv4.ip crcMode "\"declared\""
attr enum declared,computed
par SimpleWlanFtp.ftp_cli.ipv4.ip timeToLive 32
par SimpleWlanFtp.ftp_cli.ipv4.ip multicastTimeToLive 32
par SimpleWlanFtp.ftp_cli.ipv4.ip fragmentTimeout 60s
attr unit s
par SimpleWlanFtp.ftp_cli.ipv4.ip limitedBroadcast false
par SimpleWlanFtp.ftp_cli.ipv4.ip directBroadcastInterfaces "\"\""
scalar SimpleWlanFtp.ftp_cli.ipv4.ip packetDropAddressResolutionFailed:count 0
attr interpolationmode none
attr recordingmode count
attr source packetDropReasonIsAddressResolutionFailed(packetDropped)
attr title "packet drop: address resolution failed, count"
scalar SimpleWlanFtp.ftp_cli.ipv4.ip packetDropAddressResolutionFailed:sum(packetBytes) 0
attr interpolationmode none
attr recordingmode sum(packetBytes)
attr source packetDropReasonIsAddressResolutionFailed(packetDropped)
attr title "packet drop: address resolution failed, sum(packetBytes)"
scalar SimpleWlanFtp.ftp_cli.ipv4.ip packetDropHopLimitReached:count 0
attr interpolationmode none
attr recordingmode count
attr source packetDropReasonIsHopLimitReached(packetDropped)
attr title "packet drop: hop limit reached, count"
scalar SimpleWlanFtp.ftp_cli.ipv4.ip packetDropHopLimitReached:sum(packetBytes) 0
attr interpolationmode none
attr recordingmode sum(packetBytes)
attr source packetDropReasonIsHopLimitReached(packetDropped)
attr title "packet drop: hop limit reached, sum(packetBytes)"
scalar SimpleWlanFtp.ftp_cli.ipv4.ip packetDropForwardingDisabled:count 0
attr interpolationmode none
attr recordingmode count
attr source packetDropReasonIsForwardingDisabled(packetDropped)
attr title "packet drop: forwarding disabled, count"
scalar SimpleWlanFtp.ftp_cli.ipv4.ip packetDropForwardingDisabled:sum(packetBytes) 0
attr interpolationmode none
attr recordingmode sum(packetBytes)
attr source packetDropReasonIsForwardingDisabled(packetDropped)
attr title "packet drop: forwarding disabled, sum(packetBytes)"
scalar SimpleWlanFtp.ftp_cli.ipv4.ip packetDropNoInterfaceFound:count 0
attr interpolationmode none
attr recordingmode count
attr source packetDropReasonIsNoInterfaceFound(packetDropped)
attr title "packet drop: no interface found, count"
scalar SimpleWlanFtp.ftp_cli.ipv4.ip packetDropNoInterfaceFound:sum(packetBytes) 0
attr interpolationmode none
attr recordingmode sum(packetBytes)
attr source packetDropReasonIsNoInterfaceFound(packetDropped)
attr title "packet drop: no interface found, sum(packetBytes)"
scalar SimpleWlanFtp.ftp_cli.ipv4.ip packetDropNoRouteFound:count 5
attr interpolationmode none
attr recordingmode count
attr source packetDropReasonIsNoRouteFound(packetDropped)
attr title "packet drop: no route found, count"
scalar SimpleWlanFtp.ftp_cli.ipv4.ip packetDropNoRouteFound:sum(packetBytes) 240
attr interpolationmode none
attr recordingmode sum(packetBytes)
attr source packetDropReasonIsNoRouteFound(packetDropped)
attr title "packet drop: no route found, sum(packetBytes)"
scalar SimpleWlanFtp.ftp_cli.ipv4.ip packetDropUndefined:count 0
attr interpolationmode none
attr recordingmode count
attr source packetDropReasonIsUndefined(packetDropped)
attr title "packet drop: undefined, count"
scalar SimpleWlanFtp.ftp_cli.ipv4.ip packetDropUndefined:sum(packetBytes) 0
attr interpolationmode none
attr recordingmode sum(packetBytes)
attr source packetDropReasonIsUndefined(packetDropped)
attr title "packet drop: undefined, sum(packetBytes)"
par SimpleWlanFtp.ftp_cli.ipv4.arp typename "\"inet.networklayer.arp.ipv4.Arp\""
par SimpleWlanFtp.ftp_cli.ipv4.arp interfaceTableModule "\"SimpleWlanFtp.ftp_cli.interfaceTable\""
par SimpleWlanFtp.ftp_cli.ipv4.arp routingTableModule "\"SimpleWlanFtp.ftp_cli.ipv4.routingTable\""
par SimpleWlanFtp.ftp_cli.ipv4.arp retryTimeout 1s
attr unit s
par SimpleWlanFtp.ftp_cli.ipv4.arp retryCount 3
par SimpleWlanFtp.ftp_cli.ipv4.arp cacheTimeout 120s
attr unit s
par SimpleWlanFtp.ftp_cli.ipv4.arp proxyArpInterfaces "\"\""
scalar SimpleWlanFtp.ftp_cli.ipv4.arp arpReplySent:count 0
attr recordingmode count
attr source arpReplySent
attr title "ARP replies sent, count"
scalar SimpleWlanFtp.ftp_cli.ipv4.arp arpReplySent:sum(packetBytes) 0
attr recordingmode sum(packetBytes)
attr source arpReplySent
attr title "ARP replies sent, sum(packetBytes)"
scalar SimpleWlanFtp.ftp_cli.ipv4.arp arpRequestSent:count 0
attr recordingmode count
attr source arpRequestSent
attr title "ARP request sent, count"
scalar SimpleWlanFtp.ftp_cli.ipv4.arp arpRequestSent:sum(packetBytes) 0
attr recordingmode sum(packetBytes)
attr source arpRequestSent
attr title "ARP request sent, sum(packetBytes)"
scalar SimpleWlanFtp.ftp_cli.ipv4.arp arpResolutionFailed:count 0
attr recordingmode count
attr title "ARP failed resolutions, count"
scalar SimpleWlanFtp.ftp_cli.ipv4.arp arpResolutionCompleted:count 0
attr recordingmode count
attr title "ARP completed resolutions, count"
scalar SimpleWlanFtp.ftp_cli.ipv4.arp arpResolutionInitiated:count 0
attr recordingmode count
attr title "ARP initiated resolutions, count"
par SimpleWlanFtp.ftp_cli.ipv4.lp typename "\"inet.common.MessageDispatcher\""
par SimpleWlanFtp.ftp_cli.ipv4.lp displayStringTextFormat "\"processed %p pk (%l)\""
par SimpleWlanFtp.ftp_cli.ipv4.lp forwardServiceRegistration true
par SimpleWlanFtp.ftp_cli.ipv4.lp forwardProtocolRegistration true
par SimpleWlanFtp.ftp_cli.ipv4 typename "\"inet.networklayer.ipv4.Ipv4NetworkLayer\""
par SimpleWlanFtp.ftp_cli.ipv4 forwarding false
par SimpleWlanFtp.ftp_cli.ipv4 multicastForwarding false
par SimpleWlanFtp.ftp_cli.ipv4 interfaceTableModule "\"SimpleWlanFtp.ftp_cli.interfaceTable\""
par SimpleWlanFtp.ftp_cli.ipv4 displayStringTextFormat "\"%i\""
par SimpleWlanFtp.ftp_cli.nl typename "\"inet.common.MessageDispatcher\""
par SimpleWlanFtp.ftp_cli.nl displayStringTextFormat "\"processed %p pk (%l)\""
par SimpleWlanFtp.ftp_cli.nl forwardServiceRegistration true
par SimpleWlanFtp.ftp_cli.nl forwardProtocolRegistration true
par SimpleWlanFtp.ftp_cli.udp typename "\"inet.transportlayer.udp.Udp\""
par SimpleWlanFtp.ftp_cli.udp interfaceTableModule "\"SimpleWlanFtp.ftp_cli.interfaceTable\""
par SimpleWlanFtp.ftp_cli.udp icmpModule "\"^.ipv4.icmp\""
par SimpleWlanFtp.ftp_cli.udp icmpv6Module "\"^.ipv6.icmpv6\""
par SimpleWlanFtp.ftp_cli.udp crcMode "\"declared\""
attr enum disabled,declared,computed
par SimpleWlanFtp.ftp_cli.udp defaultMulticastLoop true
scalar SimpleWlanFtp.ftp_cli.udp packetReceived:count 0
attr interpolationmode none
attr recordingmode count
attr source packetReceived
attr title "packets received, count"
scalar SimpleWlanFtp.ftp_cli.udp packetReceived:sum(packetBytes) 0
attr interpolationmode none
attr recordingmode sum(packetBytes)
attr source packetReceived
attr title "packets received, sum(packetBytes)"
scalar SimpleWlanFtp.ftp_cli.udp packetSent:count 0
attr interpolationmode none
attr recordingmode count
attr source packetSent
attr title "packets sent, count"
scalar SimpleWlanFtp.ftp_cli.udp packetSent:sum(packetBytes) 0
attr interpolationmode none
attr recordingmode sum(packetBytes)
attr source packetSent
attr title "packets sent, sum(packetBytes)"
scalar SimpleWlanFtp.ftp_cli.udp passedUpPk:count 0
attr interpolationmode none
attr recordingmode count
attr source packetSentToUpper
attr title "packets passed up, count"
scalar SimpleWlanFtp.ftp_cli.udp droppedPkWrongPort:count 0
attr interpolationmode none
attr recordingmode count
attr source packetDropReasonIsNoPortFound(packetDropped)
attr title "packets dropped (wrong port), count"
scalar SimpleWlanFtp.ftp_cli.udp droppedPkBadChecksum:count 0
attr interpolationmode none
attr recordingmode count
attr source packetDropReasonIsIncorrectlyReceived(packetDropped)
attr title "packets dropped (checksum error), count"
par SimpleWlanFtp.ftp_cli.tcp typename "\"inet.transportlayer.tcp.Tcp\""
par SimpleWlanFtp.ftp_cli.tcp crcMode "\"declared\""
attr enum declared,computed
par SimpleWlanFtp.ftp_cli.tcp advertisedWindow 1460000
par SimpleWlanFtp.ftp_cli.tcp delayedAcksEnabled false
par SimpleWlanFtp.ftp_cli.tcp nagleEnabled true
par SimpleWlanFtp.ftp_cli.tcp limitedTransmitEnabled false
par SimpleWlanFtp.ftp_cli.tcp increasedIWEnabled false
par SimpleWlanFtp.ftp_cli.tcp sackSupport false
par SimpleWlanFtp.ftp_cli.tcp windowScalingSupport true
par SimpleWlanFtp.ftp_cli.tcp windowScalingFactor -1
par SimpleWlanFtp.ftp_cli.tcp timestampSupport false
par SimpleWlanFtp.ftp_cli.tcp mss 1460
par SimpleWlanFtp.ftp_cli.tcp msl 120s
attr unit s
par SimpleWlanFtp.ftp_cli.tcp tcpAlgorithmClass "\"TcpNewReno\""
par SimpleWlanFtp.ftp_cli.tcp useDataNotification false
par SimpleWlanFtp.ftp_cli.tcp dupthresh 3
par SimpleWlanFtp.ftp_cli.tcp initialSsthresh 4294967295
par SimpleWlanFtp.ftp_cli.tcp stopOperationExtraTime 0s
attr unit s
par SimpleWlanFtp.ftp_cli.tcp stopOperationTimeout 2s
attr unit s
par SimpleWlanFtp.ftp_cli.tcp ecnWillingness false
par SimpleWlanFtp.ftp_cli.tcp dctcpGamma 0.0625
par SimpleWlanFtp.ftp_cli.tn typename "\"inet.common.MessageDispatcher\""
par SimpleWlanFtp.ftp_cli.tn displayStringTextFormat "\"processed %p pk (%l)\""
par SimpleWlanFtp.ftp_cli.tn forwardServiceRegistration true
par SimpleWlanFtp.ftp_cli.tn forwardProtocolRegistration true
par SimpleWlanFtp.ftp_cli.app[0] typename "\"inet.applications.tcpapp.TcpSessionApp\""
par SimpleWlanFtp.ftp_cli.app[0] localAddress "\"\""
par SimpleWlanFtp.ftp_cli.app[0] localPort -1
par SimpleWlanFtp.ftp_cli.app[0] active true
par SimpleWlanFtp.ftp_cli.app[0] connectAddress "\"ftp_srv\""
par SimpleWlanFtp.ftp_cli.app[0] connectPort 1000
par SimpleWlanFtp.ftp_cli.app[0] dataTransferMode "\"bytecount\""
attr enum bytecount,object,bytestream
par SimpleWlanFtp.ftp_cli.app[0] tOpen 1s
attr unit s
par SimpleWlanFtp.ftp_cli.app[0] tSend 1s
attr unit s
par SimpleWlanFtp.ftp_cli.app[0] sendBytes 50000000B
attr unit B
par SimpleWlanFtp.ftp_cli.app[0] sendScript "\"\""
par SimpleWlanFtp.ftp_cli.app[0] tClose 90s
attr unit s
par SimpleWlanFtp.ftp_cli.app[0] timeToLive -1
par SimpleWlanFtp.ftp_cli.app[0] dscp -1
par SimpleWlanFtp.ftp_cli.app[0] tos -1
par SimpleWlanFtp.ftp_cli.app[0] stopOperationExtraTime -1s
attr unit s
par SimpleWlanFtp.ftp_cli.app[0] stopOperationTimeout 2s
attr unit s
scalar SimpleWlanFtp.ftp_cli.app[0] bytesRcvd 0
scalar SimpleWlanFtp.ftp_cli.app[0] bytesSent 0
scalar SimpleWlanFtp.ftp_cli.app[0] packetReceived:count 0
attr interpolationmode none
attr recordingmode count
attr source packetReceived
attr title "packets received, count"
scalar SimpleWlanFtp.ftp_cli.app[0] packetReceived:sum(packetBytes) 0
attr interpolationmode none
attr recordingmode sum(packetBytes)
attr source packetReceived
attr title "packets received, sum(packetBytes)"
statistic SimpleWlanFtp.ftp_cli.app[0] endToEndDelay:histogram
field count 0
field mean nan
field stddev nan
field min nan
field max nan
field sum 0
field sqrsum 0
attr interpolationmode none
attr recordingmode histogram
attr source dataAge(packetReceived)
attr title "end-to-end delay"
attr unit s
bin	-inf	0
bin	0	0
bin	1	0
statistic SimpleWlanFtp.ftp_cli.app[0] endToEndDelay:weightedHistogram
field count 0
field mean nan
field stddev nan
field min nan
field max nan
field weights 0
field weightedSum 0
field sqrSumWeights 0
field weightedSqrSum 0
attr interpolationmode none
attr recordingmode weightedHistogram
attr source dataAge(packetReceived)
attr title "end-to-end delay, weightedHistogram"
attr unit s
bin	-inf	0
bin	0	0
bin	1	0
scalar SimpleWlanFtp.ftp_cli.app[0] packetSent:count 0
attr interpolationmode none
attr recordingmode count
attr source packetSent
attr title "packets sent, count"
scalar SimpleWlanFtp.ftp_cli.app[0] packetSent:sum(packetBytes) 0
attr interpolationmode none
attr recordingmode sum(packetBytes)
attr source packetSent
attr title "packets sent, sum(packetBytes)"
par SimpleWlanFtp.ftp_cli.at typename "\"inet.common.MessageDispatcher\""
par SimpleWlanFtp.ftp_cli.at displayStringTextFormat "\"processed %p pk (%l)\""
par SimpleWlanFtp.ftp_cli.at forwardServiceRegistration true
par SimpleWlanFtp.ftp_cli.at forwardProtocolRegistration true
par SimpleWlanFtp.ftp_cli typename "\"inet.node.inet.StandardHost\""
par SimpleWlanFtp.ftp_cli hasStatus false
par SimpleWlanFtp.ftp_cli osgModel "\"\""
[...]
attr source packetDropReasonIsInterfaceDown(packetDropped)
attr title "packet drop: interface down, sum(packetBytes)"
scalar SimpleWlanFtp.ftp_srv.eth[0].mac packetDropNotAddressedToUs:count 0
attr interpolationmode none
attr recordingmode count
attr source packetDropReasonIsNotAddressedToUs(packetDropped)
attr title "packet drop: not addressed to us, count"
scalar SimpleWlanFtp.ftp_srv.eth[0].mac packetDropNotAddressedToUs:sum(packetBytes) 0
attr interpolationmode none
attr recordingmode sum(packetBytes)
attr source packetDropReasonIsNotAddressedToUs(packetDropped)
attr title "packet drop: not addressed to us, sum(packetBytes)"
scalar SimpleWlanFtp.ftp_srv.eth[0].mac rxPausePkUnits:count 0
attr interpolationmode none
attr recordingmode count
attr title "pause units received, count"
scalar SimpleWlanFtp.ftp_srv.eth[0].mac rxPausePkUnits:sum 0
attr interpolationmode none
attr recordingmode sum
attr title "pause units received, sum"
scalar SimpleWlanFtp.ftp_srv.eth[0].mac txPausePkUnits:count 0
attr interpolationmode none
attr recordingmode count
attr title "pause units sent, count"
scalar SimpleWlanFtp.ftp_srv.eth[0].mac txPausePkUnits:sum 0
attr interpolationmode none
attr recordingmode sum
attr title "pause units sent, sum"
scalar SimpleWlanFtp.ftp_srv.eth[0].mac rxPkOk:count 0
attr interpolationmode none
attr recordingmode count
attr source rxPkOk
attr title "packets received OK, count"
scalar SimpleWlanFtp.ftp_srv.eth[0].mac rxPkOk:sum(packetBytes) 0
attr interpolationmode none
attr recordingmode sum(packetBytes)
attr source rxPkOk
attr title "packets received OK, sum(packetBytes)"
par SimpleWlanFtp.ftp_srv.eth[0] typename "\"inet.linklayer.ethernet.EthernetInterface\""
par SimpleWlanFtp.ftp_srv.eth[0] displayStringTextFormat "\"%a (%i)\\n%m\""
par SimpleWlanFtp.ftp_srv.eth[0] recordPcap false
par SimpleWlanFtp.ftp_srv.eth[0] numPcapRecorders 0
par SimpleWlanFtp.ftp_srv.eth[0] interfaceTableModule "\"SimpleWlanFtp.ftp_srv.interfaceTable\""
par SimpleWlanFtp.ftp_srv.eth[0] protocol "\"ethernetmac\""
par SimpleWlanFtp.ftp_srv.eth[0] address "\"0A-AA-00-00-00-05\""
attr mutable ""
par SimpleWlanFtp.ftp_srv.eth[0] duplexMode true
par SimpleWlanFtp.ftp_srv.eth[0] csmacdSupport false
par SimpleWlanFtp.ftp_srv.eth[0] bitrate 0bps
attr unit bps
par SimpleWlanFtp.ftp_srv.eth[0] fcsMode "\"declared\""
attr enum declared,computed
scalar SimpleWlanFtp.ftp_srv.eth[0] packetDropInterfaceDown:count 0
attr interpolationmode none
attr recordingmode count
attr source packetDropReasonIsInterfaceDown(packetDropped)
attr title "packet drops: interface down, count"
scalar SimpleWlanFtp.ftp_srv.eth[0] packetDropInterfaceDown:sum(packetBytes) 0
attr interpolationmode none
attr recordingmode sum(packetBytes)
attr source packetDropReasonIsInterfaceDown(packetDropped)
attr title "packet drops: interface down, sum(packetBytes)"
scalar SimpleWlanFtp.ftp_srv.eth[0] packetDropNoCarrier:count 0
attr interpolationmode none
attr recordingmode count
attr source packetDropReasonIsNoCarrier(packetDropped)
attr title "packet drops: no carrier, count"
scalar SimpleWlanFtp.ftp_srv.eth[0] packetDropNoCarrier:sum(packetBytes) 0
attr interpolationmode none
attr recordingmode sum(packetBytes)
attr source packetDropReasonIsNoCarrier(packetDropped)
attr title "packet drops: no carrier, sum(packetBytes)"
par SimpleWlanFtp.ftp_srv.ipv4.transportIn.channel typename "\"ned.IdealChannel\""
par SimpleWlanFtp.ftp_srv.ipv4.up.out[0].channel typename "\"ned.IdealChannel\""
par SimpleWlanFtp.ftp_srv.ipv4.lp.out[2].channel typename "\"ned.IdealChannel\""
par SimpleWlanFtp.ftp_srv.ipv4.ifIn.channel typename "\"ned.IdealChannel\""
par SimpleWlanFtp.ftp_srv.ipv4.configurator typename "\"inet.networklayer.configurator.ipv4.Ipv4NodeConfigurator\""
par SimpleWlanFtp.ftp_srv.ipv4.configurator interfaceTableModule "\"SimpleWlanFtp.ftp_srv.interfaceTable\""
par SimpleWlanFtp.ftp_srv.ipv4.configurator routingTableModule "\"SimpleWlanFtp.ftp_srv.ipv4.routingTable\""
par SimpleWlanFtp.ftp_srv.ipv4.configurator networkConfiguratorModule "\"configurator\""
par SimpleWlanFtp.ftp_srv.ipv4.configurator configureRoutingTable true
par SimpleWlanFtp.ftp_srv.ipv4.routingTable typename "\"inet.networklayer.ipv4.Ipv4RoutingTable\""
par SimpleWlanFtp.ftp_srv.ipv4.routingTable interfaceTableModule "\"SimpleWlanFtp.ftp_srv.interfaceTable\""
par SimpleWlanFtp.ftp_srv.ipv4.routingTable routerId "\"auto\""
par SimpleWlanFtp.ftp_srv.ipv4.routingTable netmaskRoutes "\"*\""
par SimpleWlanFtp.ftp_srv.ipv4.routingTable forwarding false
par SimpleWlanFtp.ftp_srv.ipv4.routingTable multicastForwarding false
par SimpleWlanFtp.ftp_srv.ipv4.routingTable useAdminDist false
par SimpleWlanFtp.ftp_srv.ipv4.routingTable routingFile "\"\""
par SimpleWlanFtp.ftp_srv.ipv4.natTable typename "\"inet.networklayer.ipv4.Ipv4NatTable\""
par SimpleWlanFtp.ftp_srv.ipv4.natTable networkProtocolModule "\"^.ip\""
par SimpleWlanFtp.ftp_srv.ipv4.natTable config "<config/> at content:1"
par SimpleWlanFtp.ftp_srv.ipv4.up typename "\"inet.common.MessageDispatcher\""
par SimpleWlanFtp.ftp_srv.ipv4.up displayStringTextFormat "\"processed %p pk (%l)\""
par SimpleWlanFtp.ftp_srv.ipv4.up forwardServiceRegistration true
par SimpleWlanFtp.ftp_srv.ipv4.up forwardProtocolRegistration true
par SimpleWlanFtp.ftp_srv.ipv4.igmp typename "\"inet.networklayer.ipv4.Igmpv2\""
par SimpleWlanFtp.ftp_srv.ipv4.igmp interfaceTableModule "\"SimpleWlanFtp.ftp_srv.interfaceTable\""
par SimpleWlanFtp.ftp_srv.ipv4.igmp routingTableModule "\"SimpleWlanFtp.ftp_srv.ipv4.routingTable\""
par SimpleWlanFtp.ftp_srv.ipv4.igmp crcMode "\"declared\""
attr enum declared,computed
par SimpleWlanFtp.ftp_srv.ipv4.igmp enabled true
par SimpleWlanFtp.ftp_srv.ipv4.igmp robustnessVariable 2
par SimpleWlanFtp.ftp_srv.ipv4.igmp queryInterval 125s
attr unit s
par SimpleWlanFtp.ftp_srv.ipv4.igmp queryResponseInterval 10s
attr unit s
par SimpleWlanFtp.ftp_srv.ipv4.igmp groupMembershipInterval 260s
attr unit s
par SimpleWlanFtp.ftp_srv.ipv4.igmp otherQuerierPresentInterval 255s
attr unit s
par SimpleWlanFtp.ftp_srv.ipv4.igmp startupQueryInterval 31.25s
attr unit s
par SimpleWlanFtp.ftp_srv.ipv4.igmp startupQueryCount 2
par SimpleWlanFtp.ftp_srv.ipv4.igmp lastMemberQueryInterval 1s
attr unit s
par SimpleWlanFtp.ftp_srv.ipv4.igmp lastMemberQueryCount 2
par SimpleWlanFtp.ftp_srv.ipv4.igmp unsolicitedReportInterval 10s
attr unit s
par SimpleWlanFtp.ftp_srv.ipv4.icmp typename "\"inet.networklayer.ipv4.Icmp\""
par SimpleWlanFtp.ftp_srv.ipv4.icmp interfaceTableModule "\"SimpleWlanFtp.ftp_srv.interfaceTable\""
par SimpleWlanFtp.ftp_srv.ipv4.icmp routingTableModule "\"SimpleWlanFtp.ftp_srv.ipv4.routingTable\""
par SimpleWlanFtp.ftp_srv.ipv4.icmp crcMode "\"declared\""
attr enum declared,computed
attr mutable ""
par SimpleWlanFtp.ftp_srv.ipv4.icmp quoteLength 8B
attr mutable ""
attr unit B
par SimpleWlanFtp.ftp_srv.ipv4.mp typename "\"inet.common.MessageDispatcher\""
par SimpleWlanFtp.ftp_srv.ipv4.mp displayStringTextFormat "\"processed %p pk (%l)\""
par SimpleWlanFtp.ftp_srv.ipv4.mp forwardServiceRegistration true
par SimpleWlanFtp.ftp_srv.ipv4.mp forwardProtocolRegistration true
par SimpleWlanFtp.ftp_srv.ipv4.ip typename "\"inet.networklayer.ipv4.Ipv4\""
par SimpleWlanFtp.ftp_srv.ipv4.ip interfaceTableModule "\"SimpleWlanFtp.ftp_srv.interfaceTable\""
par SimpleWlanFtp.ftp_srv.ipv4.ip routingTableModule "\"SimpleWlanFtp.ftp_srv.ipv4.routingTable\""
par SimpleWlanFtp.ftp_srv.ipv4.ip arpModule "\"SimpleWlanFtp.ftp_srv.ipv4.arp\""
par SimpleWlanFtp.ftp_srv.ipv4.ip icmpModule "\"SimpleWlanFtp.ftp_srv.ipv4.icmp\""
par SimpleWlanFtp.ftp_srv.ipv4.ip crcMode "\"declared\""
attr enum declared,computed
par SimpleWlanFtp.ftp_srv.ipv4.ip timeToLive 32
par SimpleWlanFtp.ftp_srv.ipv4.ip multicastTimeToLive 32
par SimpleWlanFtp.ftp_srv.ipv4.ip fragmentTimeout 60s
attr unit s
par SimpleWlanFtp.ftp_srv.ipv4.ip limitedBroadcast false
par SimpleWlanFtp.ftp_srv.ipv4.ip directBroadcastInterfaces "\"\""
scalar SimpleWlanFtp.ftp_srv.ipv4.ip packetDropAddressResolutionFailed:count 0
attr interpolationmode none
attr recordingmode count
attr source packetDropReasonIsAddressResolutionFailed(packetDropped)
attr title "packet drop: address resolution failed, count"
scalar SimpleWlanFtp.ftp_srv.ipv4.ip packetDropAddressResolutionFailed:sum(packetBytes) 0
attr interpolationmode none
attr recordingmode sum(packetBytes)
attr source packetDropReasonIsAddressResolutionFailed(packetDropped)
attr title "packet drop: address resolution failed, sum(packetBytes)"
scalar SimpleWlanFtp.ftp_srv.ipv4.ip packetDropHopLimitReached:count 0
attr interpolationmode none
attr recordingmode count
attr source packetDropReasonIsHopLimitReached(packetDropped)
attr title "packet drop: hop limit reached, count"
scalar SimpleWlanFtp.ftp_srv.ipv4.ip packetDropHopLimitReached:sum(packetBytes) 0
attr interpolationmode none
attr recordingmode sum(packetBytes)
attr source packetDropReasonIsHopLimitReached(packetDropped)
attr title "packet drop: hop limit reached, sum(packetBytes)"
scalar SimpleWlanFtp.ftp_srv.ipv4.ip packetDropForwardingDisabled:count 0
attr interpolationmode none
attr recordingmode count
attr source packetDropReasonIsForwardingDisabled(packetDropped)
attr title "packet drop: forwarding disabled, count"
scalar SimpleWlanFtp.ftp_srv.ipv4.ip packetDropForwardingDisabled:sum(packetBytes) 0
attr interpolationmode none
attr recordingmode sum(packetBytes)
attr source packetDropReasonIsForwardingDisabled(packetDropped)
attr title "packet drop: forwarding disabled, sum(packetBytes)"
scalar SimpleWlanFtp.ftp_srv.ipv4.ip packetDropNoInterfaceFound:count 0
attr interpolationmode none
attr recordingmode count
attr source packetDropReasonIsNoInterfaceFound(packetDropped)
attr title "packet drop: no interface found, count"
scalar SimpleWlanFtp.ftp_srv.ipv4.ip packetDropNoInterfaceFound:sum(packetBytes) 0
attr interpolationmode none
attr recordingmode sum(packetBytes)
attr source packetDropReasonIsNoInterfaceFound(packetDropped)
attr title "packet drop: no interface found, sum(packetBytes)"
scalar SimpleWlanFtp.ftp_srv.ipv4.ip packetDropNoRouteFound:count 0
attr interpolationmode none
attr recordingmode count
attr source packetDropReasonIsNoRouteFound(packetDropped)
attr title "packet drop: no route found, count"
scalar SimpleWlanFtp.ftp_srv.ipv4.ip packetDropNoRouteFound:sum(packetBytes) 0
attr interpolationmode none
attr recordingmode sum(packetBytes)
attr source packetDropReasonIsNoRouteFound(packetDropped)
attr title "packet drop: no route found, sum(packetBytes)"
scalar SimpleWlanFtp.ftp_srv.ipv4.ip packetDropUndefined:count 0
attr interpolationmode none
attr recordingmode count
attr source packetDropReasonIsUndefined(packetDropped)
attr title "packet drop: undefined, count"
scalar SimpleWlanFtp.ftp_srv.ipv4.ip packetDropUndefined:sum(packetBytes) 0
attr interpolationmode none
attr recordingmode sum(packetBytes)
attr source packetDropReasonIsUndefined(packetDropped)
attr title "packet drop: undefined, sum(packetBytes)"
par SimpleWlanFtp.ftp_srv.ipv4.arp typename "\"inet.networklayer.arp.ipv4.Arp\""
par SimpleWlanFtp.ftp_srv.ipv4.arp interfaceTableModule "\"SimpleWlanFtp.ftp_srv.interfaceTable\""
par SimpleWlanFtp.ftp_srv.ipv4.arp routingTableModule "\"SimpleWlanFtp.ftp_srv.ipv4.routingTable\""
par SimpleWlanFtp.ftp_srv.ipv4.arp retryTimeout 1s
attr unit s
par SimpleWlanFtp.ftp_srv.ipv4.arp retryCount 3
par SimpleWlanFtp.ftp_srv.ipv4.arp cacheTimeout 120s
attr unit s
par SimpleWlanFtp.ftp_srv.ipv4.arp proxyArpInterfaces "\"\""
scalar SimpleWlanFtp.ftp_srv.ipv4.arp arpReplySent:count 0
attr recordingmode count
attr source arpReplySent
attr title "ARP replies sent, count"
scalar SimpleWlanFtp.ftp_srv.ipv4.arp arpReplySent:sum(packetBytes) 0
attr recordingmode sum(packetBytes)
attr source arpReplySent
attr title "ARP replies sent, sum(packetBytes)"
scalar SimpleWlanFtp.ftp_srv.ipv4.arp arpRequestSent:count 0
attr recordingmode count
attr source arpRequestSent
attr title "ARP request sent, count"
scalar SimpleWlanFtp.ftp_srv.ipv4.arp arpRequestSent:sum(packetBytes) 0
attr recordingmode sum(packetBytes)
attr source arpRequestSent
attr title "ARP request sent, sum(packetBytes)"
scalar SimpleWlanFtp.ftp_srv.ipv4.arp arpResolutionFailed:count 0
attr recordingmode count
attr title "ARP failed resolutions, count"
scalar SimpleWlanFtp.ftp_srv.ipv4.arp arpResolutionCompleted:count 0
attr recordingmode count
attr title "ARP completed resolutions, count"
scalar SimpleWlanFtp.ftp_srv.ipv4.arp arpResolutionInitiated:count 0
attr recordingmode count
attr title "ARP initiated resolutions, count"
par SimpleWlanFtp.ftp_srv.ipv4.lp typename "\"inet.common.MessageDispatcher\""
par SimpleWlanFtp.ftp_srv.ipv4.lp displayStringTextFormat "\"processed %p pk (%l)\""
par SimpleWlanFtp.ftp_srv.ipv4.lp forwardServiceRegistration true
par SimpleWlanFtp.ftp_srv.ipv4.lp forwardProtocolRegistration true
par SimpleWlanFtp.ftp_srv.ipv4 typename "\"inet.networklayer.ipv4.Ipv4NetworkLayer\""
par SimpleWlanFtp.ftp_srv.ipv4 forwarding false
par SimpleWlanFtp.ftp_srv.ipv4 multicastForwarding false
par SimpleWlanFtp.ftp_srv.ipv4 interfaceTableModule "\"SimpleWlanFtp.ftp_srv.interfaceTable\""
par SimpleWlanFtp.ftp_srv.ipv4 displayStringTextFormat "\"%i\""
par SimpleWlanFtp.ftp_srv.nl typename "\"inet.common.MessageDispatcher\""
par SimpleWlanFtp.ftp_srv.nl displayStringTextFormat "\"processed %p pk (%l)\""
par SimpleWlanFtp.ftp_srv.nl forwardServiceRegistration true
par SimpleWlanFtp.ftp_srv.nl forwardProtocolRegistration true
par SimpleWlanFtp.ftp_srv.udp typename "\"inet.transportlayer.udp.Udp\""
par SimpleWlanFtp.ftp_srv.udp interfaceTableModule "\"SimpleWlanFtp.ftp_srv.interfaceTable\""
par SimpleWlanFtp.ftp_srv.udp icmpModule "\"^.ipv4.icmp\""
par SimpleWlanFtp.ftp_srv.udp icmpv6Module "\"^.ipv6.icmpv6\""
par SimpleWlanFtp.ftp_srv.udp crcMode "\"declared\""
attr enum disabled,declared,computed
par SimpleWlanFtp.ftp_srv.udp defaultMulticastLoop true
scalar SimpleWlanFtp.ftp_srv.udp packetReceived:count 0
attr interpolationmode none
attr recordingmode count
attr source packetReceived
attr title "packets received, count"
scalar SimpleWlanFtp.ftp_srv.udp packetReceived:sum(packetBytes) 0
attr interpolationmode none
attr recordingmode sum(packetBytes)
attr source packetReceived
attr title "packets received, sum(packetBytes)"
scalar SimpleWlanFtp.ftp_srv.udp packetSent:count 0
attr interpolationmode none
attr recordingmode count
attr source packetSent
attr title "packets sent, count"
scalar SimpleWlanFtp.ftp_srv.udp packetSent:sum(packetBytes) 0
attr interpolationmode none
attr recordingmode sum(packetBytes)
attr source packetSent
attr title "packets sent, sum(packetBytes)"
scalar SimpleWlanFtp.ftp_srv.udp passedUpPk:count 0
attr interpolationmode none
attr recordingmode count
attr source packetSentToUpper
attr title "packets passed up, count"
scalar SimpleWlanFtp.ftp_srv.udp droppedPkWrongPort:count 0
attr interpolationmode none
attr recordingmode count
attr source packetDropReasonIsNoPortFound(packetDropped)
attr title "packets dropped (wrong port), count"
scalar SimpleWlanFtp.ftp_srv.udp droppedPkBadChecksum:count 0
attr interpolationmode none
attr recordingmode count
attr source packetDropReasonIsIncorrectlyReceived(packetDropped)
attr title "packets dropped (checksum error), count"
par SimpleWlanFtp.ftp_srv.tcp.conn-1 typename "\"inet.transportlayer.tcp.TcpConnection\""
par SimpleWlanFtp.ftp_srv.tcp typename "\"inet.transportlayer.tcp.Tcp\""
par SimpleWlanFtp.ftp_srv.tcp crcMode "\"declared\""
attr enum declared,computed
par SimpleWlanFtp.ftp_srv.tcp advertisedWindow 1460000
par SimpleWlanFtp.ftp_srv.tcp delayedAcksEnabled false
par SimpleWlanFtp.ftp_srv.tcp nagleEnabled true
par SimpleWlanFtp.ftp_srv.tcp limitedTransmitEnabled false
par SimpleWlanFtp.ftp_srv.tcp increasedIWEnabled false
par SimpleWlanFtp.ftp_srv.tcp sackSupport false
par SimpleWlanFtp.ftp_srv.tcp windowScalingSupport true
par SimpleWlanFtp.ftp_srv.tcp windowScalingFactor -1
par SimpleWlanFtp.ftp_srv.tcp timestampSupport false
par SimpleWlanFtp.ftp_srv.tcp mss 1460
par SimpleWlanFtp.ftp_srv.tcp msl 120s
attr unit s
par SimpleWlanFtp.ftp_srv.tcp tcpAlgorithmClass "\"TcpNewReno\""
par SimpleWlanFtp.ftp_srv.tcp useDataNotification false
par SimpleWlanFtp.ftp_srv.tcp dupthresh 3
par SimpleWlanFtp.ftp_srv.tcp initialSsthresh 4294967295
par SimpleWlanFtp.ftp_srv.tcp stopOperationExtraTime 0s
attr unit s
par SimpleWlanFtp.ftp_srv.tcp stopOperationTimeout 2s
attr unit s
par SimpleWlanFtp.ftp_srv.tcp ecnWillingness false
par SimpleWlanFtp.ftp_srv.tcp dctcpGamma 0.0625
par SimpleWlanFtp.ftp_srv.tn typename "\"inet.common.MessageDispatcher\""
par SimpleWlanFtp.ftp_srv.tn displayStringTextFormat "\"processed %p pk (%l)\""
par SimpleWlanFtp.ftp_srv.tn forwardServiceRegistration true
par SimpleWlanFtp.ftp_srv.tn forwardProtocolRegistration true
par SimpleWlanFtp.ftp_srv.app[0] typename "\"inet.applications.tcpapp.TcpSinkApp\""
par SimpleWlanFtp.ftp_srv.app[0] localAddress "\"\""
par SimpleWlanFtp.ftp_srv.app[0] localPort 1000
par SimpleWlanFtp.ftp_srv.app[0] serverThreadModuleType "\"inet.applications.tcpapp.TcpSinkAppThread\""
par SimpleWlanFtp.ftp_srv.app[0] stopOperationExtraTime -1s
attr unit s
par SimpleWlanFtp.ftp_srv.app[0] stopOperationTimeout 2s
attr unit s
scalar SimpleWlanFtp.ftp_srv.app[0] bytesRcvd 0
scalar SimpleWlanFtp.ftp_srv.app[0] packetReceived:count 0
attr checkSignals false
attr interpolationmode none
attr recordingmode count
attr source packetReceived
attr title "packets received, count"
scalar SimpleWlanFtp.ftp_srv.app[0] packetReceived:sum(packetBytes) 0
attr checkSignals false
attr interpolationmode none
attr recordingmode sum(packetBytes)
attr source packetReceived
attr title "packets received, sum(packetBytes)"
statistic SimpleWlanFtp.ftp_srv.app[0] endToEndDelay:histogram
field count 0
field mean nan
field stddev nan
field min nan
field max nan
field sum 0
field sqrsum 0
attr checkSignals false
attr interpolationmode none
attr recordingmode histogram
attr source dataAge(packetReceived)
attr title "end-to-end delay"
attr unit s
bin	-inf	0
bin	0	0
bin	1	0
statistic SimpleWlanFtp.ftp_srv.app[0] endToEndDelay:weightedHistogram
field count 0
field mean nan
field stddev nan
field min nan
field max nan
field weights 0
field weightedSum 0
field sqrSumWeights 0
field weightedSqrSum 0
attr checkSignals false
attr interpolationmode none
attr recordingmode weightedHistogram
attr source dataAge(packetReceived)
attr title "end-to-end delay, weightedHistogram"
attr unit s
bin	-inf	0
bin	0	0
bin	1	0
par SimpleWlanFtp.ftp_srv.at typename "\"inet.common.MessageDispatcher\""
par SimpleWlanFtp.ftp_srv.at displayStringTextFormat "\"processed %p pk (%l)\""
par SimpleWlanFtp.ftp_srv.at forwardServiceRegistration true
par SimpleWlanFtp.ftp_srv.at forwardProtocolRegistration true
par SimpleWlanFtp.ftp_srv typename "\"inet.node.inet.StandardHost\""
par SimpleWlanFtp.ftp_srv hasStatus false
par SimpleWlanFtp.ftp_srv osgModel "\"\""
par SimpleWlanFtp.ftp_srv osgModelColor "\"\""
par SimpleWlanFtp.ftp_srv canvasImage "\"\""
par SimpleWlanFtp.ftp_srv canvasImageColor "\"\""
par SimpleWlanFtp.ftp_srv recordPcap false
par SimpleWlanFtp.ftp_srv numPcapRecorders 0
par SimpleWlanFtp.ftp_srv numLoInterfaces 1
par SimpleWlanFtp.ftp_srv numWlanInterfaces 0
par SimpleWlanFtp.ftp_srv numEthInterfaces 0
par SimpleWlanFtp.ftp_srv numPppInterfaces 0
par SimpleWlanFtp.ftp_srv numTunInterfaces 0
par SimpleWlanFtp.ftp_srv numVirtInterfaces 0
par SimpleWlanFtp.ftp_srv fcsMode "\"declared\""
attr enum declared,computed
par SimpleWlanFtp.ftp_srv hasIpv4 true
par SimpleWlanFtp.ftp_srv hasIpv6 false
par SimpleWlanFtp.ftp_srv hasGn false
par SimpleWlanFtp.ftp_srv forwarding false
par SimpleWlanFtp.ftp_srv multicastForwarding false
par SimpleWlanFtp.ftp_srv hasUdp true
par SimpleWlanFtp.ftp_srv hasTcp true
par SimpleWlanFtp.ftp_srv hasSctp false
par SimpleWlanFtp.ftp_srv numApps 1
par SimpleWlanFtp typename "\"SimpleWlanFtp\""

