version 3
run General-0-20250714-19:57:42-46424
attr configname General
attr datetime 20250714-19:57:42
attr datetimef 20250714-195742
attr experiment General
attr inifile omnetpp.ini
attr iterationvars ""
attr iterationvarsd ""
attr iterationvarsf ""
attr measurement ""
attr network SimpleWlanFtp
attr processid 46424
attr repetition 0
attr replication #0
attr resultdir results
attr runnumber 0
attr seedset 0
config image-path ../../omnetpp-6.1_latest/omnetpp-6.1/samples/inet4.5/images
config network SimpleWlanFtp
config sim-time-limit 100s
config warmup-period 0s
config repeat 1
config seed-set 0
config **.constraintAreaMinX 0m
config **.constraintAreaMinY 0m
config **.constraintAreaMinZ 0m
config **.constraintAreaMaxX 250m
config **.constraintAreaMaxY 30m
config **.constraintAreaMaxZ 0m
config **.mobility.initFromDisplayString false
config **.ap.mobility.typename StationaryMobility
config **.ap.mobility.initialX 125m
config **.ap.mobility.initialY 15m
config **.ap.mobility.initialZ 0m
config **.ftp_cli.mobility.typename StationaryMobility
config **.ftp_cli.mobility.initialX 50m
config **.ftp_cli.mobility.initialY 15m
config **.ftp_cli.mobility.initialZ 0m
config **.opMode "\"g(mixed)\""
config **.channelNumber 0
config **.wlan[*].bitrate 54Mbps
config **.wlan[*].radio.typename Ieee80211ScalarRadio
config **.wlan[*].radio.bandName "\"2.4 GHz\""
config **.wlan[*].radio.channelNumber 0
config **.wlan[*].radio.transmitter.power 20mW
config **.wlan[*].radio.receiver.sensitivity -85dBm
config **.wlan[*].radio.receiver.snirThreshold 4dB
config **.wlan[*].mac.typename Ieee80211Mac
config **.wlan[*].mac.dcf.channelAccess.cwMin 15
config **.wlan[*].mac.dcf.channelAccess.cwMax 1023
config **.tcp.typename Tcp
config **.tcp.tcpAlgorithmClass "\"TcpNewReno\""
config **.tcp.windowScalingSupport true
config **.tcp.mss 1460
config **.tcp.advertisedWindow 1460000
config **.tcp.recordStatistics true
config **.tcp.dump true
config **.TcpSessionApp.debug true
config **.ftp_cli.numApps 1
config **.ftp_cli.app[0].typename TcpSessionApp
config **.ftp_cli.app[0].active true
config **.ftp_cli.app[0].localAddress "\"\""
config **.ftp_cli.app[0].localPort -1
config **.ftp_cli.app[0].connectAddress "\"ftp_srv\""
config **.ftp_cli.app[0].connectPort 1000
config **.ftp_cli.app[0].tOpen 1s
config **.ftp_cli.app[0].sendBytes 50MB
config **.ftp_cli.app[0].sendScript "\"\""
config **.ftp_cli.app[0].tClose 90s
config **.ftp_srv.numApps 1
config **.ftp_srv.app[0].typename TcpSinkApp
config **.ftp_srv.app[0].localAddress "\"\""
config **.ftp_srv.app[0].localPort 1000
config **.visualizer.mediumVisualizer.displaySignals true
config **.visualizer.physicalLinkVisualizer.displayLinks true
config **.visualizer.dataLinkVisualizer.displayLinks true
config **.visualizer.networkRouteVisualizer.displayRoutes true
config **.visualizer.transportConnectionVisualizer.displayTransportConnections true
config **.scalar-recording true
config **.vector-recording true
config **.ftp_cli.app[0].*.result-recording-modes all
config **.ftp_srv.app[0].*.result-recording-modes all
config **.wlan[*].mac.*.result-recording-modes all
config **.wlan[*].radio.*.result-recording-modes all
config output-scalar-file results/General-0.sca
config output-vector-file results/General-0.vec

vector 0 SimpleWlanFtp.ftp_cli.lo[0].lo rcvdPkFromHl:vector(packetBytes) ETV
attr interpolationmode none
attr recordingmode vector(packetBytes)
attr source packetReceivedFromUpper
attr title "packets received from higher layer, packetBytes"
vector 1 SimpleWlanFtp.ftp_cli.lo[0].lo passedUpPk:vector(packetBytes) ETV
attr interpolationmode none
attr recordingmode vector(packetBytes)
attr source packetSentToUpper
attr title "packets passed to higher layer, packetBytes"
vector 2 SimpleWlanFtp.ftp_cli.lo[0] packetDropInterfaceDown:vector(packetBytes) ETV
attr interpolationmode none
attr recordingmode vector(packetBytes)
attr source packetDropReasonIsInterfaceDown(packetDropped)
attr title "packet drops: interface down, packetBytes"
vector 3 SimpleWlanFtp.ftp_cli.lo[0] packetDropNoCarrier:vector(packetBytes) ETV
attr interpolationmode none
attr recordingmode vector(packetBytes)
attr source packetDropReasonIsNoCarrier(packetDropped)
attr title "packet drops: no carrier, packetBytes"
vector 4 SimpleWlanFtp.ftp_cli.ipv4.ip packetDropAddressResolutionFailed:vector(packetBytes) ETV
attr interpolationmode none
attr recordingmode vector(packetBytes)
attr source packetDropReasonIsAddressResolutionFailed(packetDropped)
attr title "packet drop: address resolution failed, packetBytes"
vector 5 SimpleWlanFtp.ftp_cli.ipv4.ip packetDropHopLimitReached:vector(packetBytes) ETV
attr interpolationmode none
attr recordingmode vector(packetBytes)
attr source packetDropReasonIsHopLimitReached(packetDropped)
attr title "packet drop: hop limit reached, packetBytes"
vector 6 SimpleWlanFtp.ftp_cli.ipv4.ip packetDropForwardingDisabled:vector(packetBytes) ETV
attr interpolationmode none
attr recordingmode vector(packetBytes)
attr source packetDropReasonIsForwardingDisabled(packetDropped)
attr title "packet drop: forwarding disabled, packetBytes"
vector 7 SimpleWlanFtp.ftp_cli.ipv4.ip packetDropNoInterfaceFound:vector(packetBytes) ETV
attr interpolationmode none
attr recordingmode vector(packetBytes)
attr source packetDropReasonIsNoInterfaceFound(packetDropped)
attr title "packet drop: no interface found, packetBytes"
vector 8 SimpleWlanFtp.ftp_cli.ipv4.ip packetDropNoRouteFound:vector(packetBytes) ETV
attr interpolationmode none
attr recordingmode vector(packetBytes)
attr source packetDropReasonIsNoRouteFound(packetDropped)
attr title "packet drop: no route found, packetBytes"
vector 9 SimpleWlanFtp.ftp_cli.ipv4.ip packetDropUndefined:vector(packetBytes) ETV
attr interpolationmode none
attr recordingmode vector(packetBytes)
attr source packetDropReasonIsUndefined(packetDropped)
attr title "packet drop: undefined, packetBytes"
vector 10 SimpleWlanFtp.ftp_cli.ipv4.arp arpRequestSent:vector(packetBytes) ETV
attr recordingmode vector(packetBytes)
attr source arpRequestSent
attr title "ARP request sent, packetBytes"
vector 11 SimpleWlanFtp.ftp_cli.ipv4.arp arpReplySent:vector(packetBytes) ETV
attr recordingmode vector(packetBytes)
attr source arpReplySent
attr title "ARP replies sent, packetBytes"
vector 12 SimpleWlanFtp.ftp_cli.udp packetSent:vector(packetBytes) ETV
attr interpolationmode none
attr recordingmode vector(packetBytes)
attr source packetSent
attr title "packets sent, packetBytes"
vector 13 SimpleWlanFtp.ftp_cli.udp packetReceived:vector(packetBytes) ETV
attr interpolationmode none
attr recordingmode vector(packetBytes)
attr source packetReceived
attr title "packets received, packetBytes"
vector 14 SimpleWlanFtp.ftp_cli.udp passedUpPk:vector(count) ETV
attr interpolationmode none
attr recordingmode vector(count)
attr source packetSentToUpper
attr title "packets passed up, count"
vector 15 SimpleWlanFtp.ftp_cli.udp droppedPkWrongPort:vector(count) ETV
attr interpolationmode none
attr recordingmode vector(count)
attr source packetDropReasonIsNoPortFound(packetDropped)
attr title "packets dropped (wrong port), count"
vector 16 SimpleWlanFtp.ftp_cli.udp droppedPkBadChecksum:vector(count) ETV
attr interpolationmode none
attr recordingmode vector(count)
attr source packetDropReasonIsIncorrectlyReceived(packetDropped)
attr title "packets dropped (checksum error), count"
vector 17 SimpleWlanFtp.ftp_cli.app[0] packetReceived:vector(packetBytes) ETV
attr interpolationmode none
attr recordingmode vector(packetBytes)
attr source packetReceived
attr title "packets received, packetBytes"
vector 18 SimpleWlanFtp.ftp_cli.app[0] packetSent:vector(packetBytes) ETV
attr interpolationmode none
attr recordingmode vector(packetBytes)
attr source packetSent
attr title "packets sent, packetBytes"
vector 19 SimpleWlanFtp.ftp_cli.app[0] endToEndDelay:vector ETV
attr interpolationmode none
attr recordingmode vector
attr source dataAge(packetReceived)
attr title "end-to-end delay"
attr unit s
vector 20 SimpleWlanFtp.ap.bridging packetDropped:vector(packetBytes) ETV
attr interpolationmode none
attr recordingmode vector(packetBytes)
attr title "packets dropped, packetBytes"
vector 21 SimpleWlanFtp.ap.ethernet encapPk:vector(packetBytes) ETV
attr interpolationmode none
attr recordingmode vector(packetBytes)
attr source encapPk
attr title "packets encapsulated, packetBytes"
vector 22 SimpleWlanFtp.ap.ethernet decapPk:vector(packetBytes) ETV
attr interpolationmode none
attr recordingmode vector(packetBytes)
attr source decapPk
attr title "packets decapsulated, packetBytes"
vector 23 SimpleWlanFtp.ap.ethernet pauseSent:vector ETV
attr recordingmode vector
attr title "pause sent"
vector 24 SimpleWlanFtp.ap.wlan[0].mac.dcf.channelAccess.pendingQueue queueLength:vector ETV
attr autoWarmupFilter false
attr interpolationmode sample-hold
attr recordingmode vector
attr source "warmup(atomic(constant0(packetPushEnded) + count(packetPushStarted) - count(packetPulled) - count(packetRemoved) - count(packetDropped)))"
attr title "queue length"
attr unit pk
vector 25 SimpleWlanFtp.ap.wlan[0].mac.dcf.channelAccess.pendingQueue queueBitLength:vector ETV
attr autoWarmupFilter false
attr interpolationmode sample-hold
attr recordingmode vector
attr source "warmup(atomic(constant0(packetPushEnded) + sum(packetLength(packetPushStarted)) - sum(packetLength(packetPulled)) - sum(packetLength(packetRemoved)) - sum(packetLength(packetDropped))))"
attr title "queue bit length"
attr unit b
vector 26 SimpleWlanFtp.ap.wlan[0].mac.dcf.channelAccess.pendingQueue queueingTime:vector ETV
attr interpolationmode none
attr recordingmode vector
attr source queueingTime(packetPulled)
attr title "queueing times"
attr unit s
vector 27 SimpleWlanFtp.ap.wlan[0].mac.dcf.channelAccess.pendingQueue incomingPacketLengths:vector ETV
attr interpolationmode none
attr recordingmode vector
attr source packetLength(packetPushStarted)
attr title "incoming packet lengths"
attr unit b
vector 28 SimpleWlanFtp.ap.wlan[0].mac.dcf.channelAccess.pendingQueue incomingDataRate:vector ETV
attr interpolationmode linear
attr recordingmode vector
attr source throughput(packetPushStarted)
attr title "incoming datarate"
attr unit bps
vector 29 SimpleWlanFtp.ap.wlan[0].mac.dcf.channelAccess.pendingQueue outgoingPacketLengths:vector ETV
attr interpolationmode none
attr recordingmode vector
attr source packetLength(packetPulled)
attr title "outgoing packet lengths"
attr unit b
vector 30 SimpleWlanFtp.ap.wlan[0].mac.dcf.channelAccess.pendingQueue outgoingDataRate:vector ETV
attr interpolationmode linear
attr recordingmode vector
attr source throughput(packetPulled)
attr title "outgoing datarate"
attr unit bps
vector 31 SimpleWlanFtp.ap.wlan[0].mac.dcf.channelAccess.pendingQueue droppedPacketLengthsQueueOverflow:vector ETV
attr interpolationmode none
attr recordingmode vector
attr source packetLength(packetDropReasonIsQueueOverflow(packetDropped))
attr title "dropped packet lengths: queue overflow"
attr unit b
vector 32 SimpleWlanFtp.ap.wlan[0].mac.dcf.channelAccess.pendingQueue flowQueueingTime:vector ETV
attr interpolationmode none
attr recordingmode vector
attr source queueingTime(demuxFlow(packetPulled))
attr title "flow queueing times"
attr unit s
vector 33 SimpleWlanFtp.ap.wlan[0].mac.dcf.channelAccess.pendingQueue flowIncomingDataRate:vector ETV
attr interpolationmode linear
attr recordingmode vector
attr source throughput(flowPacketLength(demuxFlow(packetPushStarted)))
attr title "flow specific incoming data rate"
attr unit bps
vector 34 SimpleWlanFtp.ap.wlan[0].mac.dcf.channelAccess.pendingQueue flowOutgoingDataRate:vector ETV
attr interpolationmode linear
attr recordingmode vector
attr source throughput(flowPacketLength(demuxFlow(packetPulled)))
attr title "flow specific outgoing data rate"
attr unit bps
vector 35 SimpleWlanFtp.ap.wlan[0].mac.dcf.channelAccess.inProgressFrames queueingTime:vector ETV
attr interpolationmode none
attr recordingmode vector
attr source queueingTime(packetDequeued)
attr title "queueing times"
vector 36 SimpleWlanFtp.ap.wlan[0].mac.dcf.channelAccess.inProgressFrames queueLength:vector ETV
attr autoWarmupFilter false
attr interpolationmode sample-hold
attr recordingmode vector
attr source "warmup(count(packetEnqueued) - count(packetDequeued))"
attr title "queue length"
vector 37 SimpleWlanFtp.ap.wlan[0].mac.dcf.channelAccess.contention backoffPeriodGenerated:vector ETV
attr interpolationmode none
attr recordingmode vector
attr title "backoff periods"
vector 38 SimpleWlanFtp.ap.wlan[0].mac.dcf.channelAccess.contention backoffActive:vector ETV
attr autoWarmupFilter false
attr interpolationmode sample-hold
attr recordingmode vector
attr source warmup(count(backoffStarted)-count(backoffStopped))
attr title "backoff active"
vector 39 SimpleWlanFtp.ap.wlan[0].mac.dcf.channelAccess.contention stateChanged:vector ETV
attr enum IDLE,DEFER,IFS_AND_BACKOFF
attr interpolationmode none
attr recordingmode vector
attr title "contention state changed"
attr type enum
vector 40 SimpleWlanFtp.ap.wlan[0].mac.dcf.recipientMacDataService packetDropDuplicateDetected:vector(packetBytes) ETV
attr interpolationmode none
attr recordingmode vector(packetBytes)
attr source packetDropReasonIsDuplicateDetected(packetDropped)
attr title "packet drops: duplicate detected, packetBytes"
vector 41 SimpleWlanFtp.ap.wlan[0].mac.dcf.recoveryProcedure contentionWindowChanged:vector ETV
attr interpolationmode sample-hold
attr recordingmode vector
attr title "contention window"
vector 42 SimpleWlanFtp.ap.wlan[0].mac.dcf packetSentToPeer:vector(packetBytes) ETV
attr interpolationmode none
attr recordingmode vector(packetBytes)
attr title "packets sent, packetBytes"
vector 43 SimpleWlanFtp.ap.wlan[0].mac.dcf packetSentToPeerUnicast:vector(packetBytes) ETV
attr interpolationmode none
attr recordingmode vector(packetBytes)
attr source ieee80211Unicast(packetSentToPeer)
attr title "packets sent: unicast, packetBytes"
vector 44 SimpleWlanFtp.ap.wlan[0].mac.dcf packetSentToPeerMulticast:vector(packetBytes) ETV
attr interpolationmode none
attr recordingmode vector(packetBytes)
attr source ieee80211Multicast(packetSentToPeer)
attr title "packets sent: multicast, packetBytes"
vector 45 SimpleWlanFtp.ap.wlan[0].mac.dcf packetSentToPeerBroadcast:vector(packetBytes) ETV
attr interpolationmode none
attr recordingmode vector(packetBytes)
attr source ieee80211Broadcast(packetSentToPeer)
attr title "packets sent: broadcast , packetBytes"
vector 46 SimpleWlanFtp.ap.wlan[0].mac.dcf packetSentToPeerWithRetry:vector(packetBytes) ETV
attr interpolationmode none
attr recordingmode vector(packetBytes)
attr source ieee80211Retry(packetSentToPeer)
attr title "packets sent: with retry, packetBytes"
vector 47 SimpleWlanFtp.ap.wlan[0].mac.dcf packetSentToPeerWithoutRetry:vector(packetBytes) ETV
attr interpolationmode none
attr recordingmode vector(packetBytes)
attr source ieee80211NotRetry(packetSentToPeer)
attr title "packets sent: without retry, packetBytes"
vector 48 SimpleWlanFtp.ap.wlan[0].mac.dcf packetReceivedFromPeer:vector(packetBytes) ETV
attr interpolationmode none
attr recordingmode vector(packetBytes)
attr title "packets received, packetBytes"
vector 49 SimpleWlanFtp.ap.wlan[0].mac.dcf packetReceivedFromPeerUnicast:vector(packetBytes) ETV
attr interpolationmode none
attr recordingmode vector(packetBytes)
attr source ieee80211Unicast(packetReceivedFromPeer)
attr title "packets received: unicast, packetBytes"
vector 50 SimpleWlanFtp.ap.wlan[0].mac.dcf packetReceivedFromPeerMulticast:vector(packetBytes) ETV
attr interpolationmode none
attr recordingmode vector(packetBytes)
attr source ieee80211Multicast(packetReceivedFromPeer)
attr title "packets received: multicast, packetBytes"
vector 51 SimpleWlanFtp.ap.wlan[0].mac.dcf packetReceivedFromPeerBroadcast:vector(packetBytes) ETV
attr interpolationmode none
attr recordingmode vector(packetBytes)
attr source ieee80211Broadcast(packetReceivedFromPeer)
attr title "packets received: broadcast, packetBytes"
vector 52 SimpleWlanFtp.ap.wlan[0].mac.dcf packetReceivedFromPeerWithRetry:vector(packetBytes) ETV
attr interpolationmode none
attr recordingmode vector(packetBytes)
attr source ieee80211Retry(packetReceivedFromPeer)
attr title "packets received: with retry, packetBytes"
vector 53 SimpleWlanFtp.ap.wlan[0].mac.dcf packetReceivedFromPeerWithoutRetry:vector(packetBytes) ETV
attr interpolationmode none
attr recordingmode vector(packetBytes)
attr source ieee80211NotRetry(packetReceivedFromPeer)
attr title "packets received: without retry, packetBytes"
vector 54 SimpleWlanFtp.ap.wlan[0].mac.dcf packetDrop:vector(packetBytes) ETV
attr interpolationmode none
attr recordingmode vector(packetBytes)
attr source packetDropped
attr title "packet drops, packetBytes"
vector 55 SimpleWlanFtp.ap.wlan[0].mac.dcf packetDropNotAddressedToUs:vector(packetBytes) ETV
attr interpolationmode none
attr recordingmode vector(packetBytes)
attr source packetDropReasonIsNotAddressedToUs(packetDropped)
attr title "packet drops: not addressed to us, packetBytes"
vector 56 SimpleWlanFtp.ap.wlan[0].mac.dcf packetDropQueueOverflow:vector(packetBytes) ETV
attr interpolationmode none
attr recordingmode vector(packetBytes)
attr source packetDropReasonIsQueueOverflow(packetDropped)
attr title "packet drops: queue overflow, packetBytes"
vector 57 SimpleWlanFtp.ap.wlan[0].mac.dcf packetDropRetryLimitReached:vector(packetBytes) ETV
attr interpolationmode none
attr recordingmode vector(packetBytes)
attr source packetDropReasonIsRetryLimitReached(packetDropped)
attr title "packet drops: retry limit reached, packetBytes"
vector 58 SimpleWlanFtp.ap.wlan[0].mac.dcf frameSequenceActive:vector ETV
attr autoWarmupFilter false
attr interpolationmode sample-hold
attr recordingmode vector
attr source warmup(count(frameSequenceStarted)-count(frameSequenceFinished))
attr title "frame sequence active"
vector 59 SimpleWlanFtp.ap.wlan[0].mac.dcf datarateSelected:vector ETV
attr interpolationmode none
attr recordingmode vector
attr title "datarates selected"
vector 60 SimpleWlanFtp.ap.wlan[0].mac.rx nav:vector ETV
attr interpolationmode linear
attr recordingmode vector
attr source navChanged
attr title "network allocation vector"
vector 61 SimpleWlanFtp.ap.wlan[0].mac packetSentToUpper:vector(packetBytes) ETV
attr interpolationmode none
attr recordingmode vector(packetBytes)
attr title "packets sent to upper layer, packetBytes"
vector 62 SimpleWlanFtp.ap.wlan[0].mac packetSentToLower:vector(packetBytes) ETV
attr interpolationmode none
attr recordingmode vector(packetBytes)
attr title "packets sent to lower layer, packetBytes"
vector 63 SimpleWlanFtp.ap.wlan[0].mac packetReceivedFromUpper:vector(packetBytes) ETV
attr interpolationmode none
attr recordingmode vector(packetBytes)
attr title "packets received from upper layer, packetBytes"
vector 64 SimpleWlanFtp.ap.wlan[0].mac packetReceivedFromLower:vector(packetBytes) ETV
attr interpolationmode none
attr recordingmode vector(packetBytes)
attr title "packets received from lower layer, packetBytes"
vector 65 SimpleWlanFtp.ap.wlan[0].mac linkBroken:vector ETV
attr interpolationmode none
attr recordingmode vector
attr title "link breaks"
vector 66 SimpleWlanFtp.ap.wlan[0].mac packetDrop:vector(packetBytes) ETV
attr interpolationmode none
attr recordingmode vector(packetBytes)
attr source packetDropped
attr title "packet drops, packetBytes"
vector 67 SimpleWlanFtp.ap.wlan[0].mac packetDropIncorrectlyReceived:vector(packetBytes) ETV
attr interpolationmode none
attr recordingmode vector(packetBytes)
attr source packetDropReasonIsIncorrectlyReceived(packetDropped)
attr title "packet drops: incorrectly received, packetBytes"
vector 68 SimpleWlanFtp.ap.wlan[0].mac packetDropNotAddressedToUs:vector(packetBytes) ETV
attr interpolationmode none
attr recordingmode vector(packetBytes)
attr source packetDropReasonIsNotAddressedToUs(packetDropped)
attr title "packet drops: not addressed to us, packetBytes"
vector 69 SimpleWlanFtp.ap.wlan[0].mac packetDropQueueOverflow:vector(packetBytes) ETV
attr interpolationmode none
attr recordingmode vector(packetBytes)
attr source packetDropReasonIsQueueOverflow(packetDropped)
attr title "packet drops: queue overflow, packetBytes"
vector 70 SimpleWlanFtp.ap.wlan[0].mac packetDropRetryLimitReached:vector(packetBytes) ETV
attr interpolationmode none
attr recordingmode vector(packetBytes)
attr source packetDropReasonIsRetryLimitReached(packetDropped)
attr title "packet drops: retry limit reached, packetBytes"
vector 71 SimpleWlanFtp.ap.wlan[0].mac packetDropDuplicateDetected:vector(packetBytes) ETV
attr interpolationmode none
attr recordingmode vector(packetBytes)
attr source packetDropReasonIsDuplicateDetected(packetDropped)
attr title "packet drops: duplicate detected, packetBytes"
vector 72 SimpleWlanFtp.ap.wlan[0].mac packetDropOther:vector(packetBytes) ETV
attr interpolationmode none
attr recordingmode vector(packetBytes)
attr source packetDropReasonIsOther(packetDropped)
attr title "packet drops: other, packetBytes"
vector 73 SimpleWlanFtp.ap.wlan[0].radio radioMode:vector ETV
attr interpolationmode sample-hold
attr recordingmode vector
attr source radioModeChanged
attr title "Radio mode"
vector 74 SimpleWlanFtp.ap.wlan[0].radio receptionState:vector ETV
attr interpolationmode sample-hold
attr recordingmode vector
attr source receptionStateChanged
attr title "Radio reception state"
vector 75 SimpleWlanFtp.ap.wlan[0].radio transmissionState:vector ETV
attr interpolationmode sample-hold
attr recordingmode vector
attr source transmissionStateChanged
attr title "Radio transmission state"
vector 76 SimpleWlanFtp.ap.wlan[0].radio radioChannel:vector ETV
attr interpolationmode sample-hold
attr recordingmode vector
attr source radioChannelChanged
attr title "Radio channel"
vector 77 SimpleWlanFtp.ap.wlan[0] packetDropInterfaceDown:vector(packetBytes) ETV
attr interpolationmode none
attr recordingmode vector(packetBytes)
attr source packetDropReasonIsInterfaceDown(packetDropped)
attr title "packet drops: interface down, packetBytes"
vector 78 SimpleWlanFtp.ap.wlan[0] packetDropNoCarrier:vector(packetBytes) ETV
attr interpolationmode none
attr recordingmode vector(packetBytes)
attr source packetDropReasonIsNoCarrier(packetDropped)
attr title "packet drops: no carrier, packetBytes"
vector 79 SimpleWlanFtp.ap.eth[0].queue queueLength:vector ETV
attr autoWarmupFilter false
attr interpolationmode sample-hold
attr recordingmode vector
attr source "warmup(atomic(constant0(packetPushEnded) + count(packetPushStarted) - count(packetPulled) - count(packetRemoved) - count(packetDropped)))"
attr title "queue length"
attr unit pk
vector 80 SimpleWlanFtp.ap.eth[0].queue queueBitLength:vector ETV
attr autoWarmupFilter false
attr interpolationmode sample-hold
attr recordingmode vector
attr source "warmup(atomic(constant0(packetPushEnded) + sum(packetLength(packetPushStarted)) - sum(packetLength(packetPulled)) - sum(packetLength(packetRemoved)) - sum(packetLength(packetDropped))))"
attr title "queue bit length"
attr unit b
vector 81 SimpleWlanFtp.ap.eth[0].queue queueingTime:vector ETV
attr interpolationmode none
attr recordingmode vector
attr source queueingTime(packetPulled)
attr title "queueing times"
attr unit s
vector 82 SimpleWlanFtp.ap.eth[0].queue incomingPacketLengths:vector ETV
attr interpolationmode none
attr recordingmode vector
attr source packetLength(packetPushStarted)
attr title "incoming packet lengths"
attr unit b
vector 83 SimpleWlanFtp.ap.eth[0].queue incomingDataRate:vector ETV
attr interpolationmode linear
attr recordingmode vector
attr source throughput(packetPushStarted)
attr title "incoming datarate"
attr unit bps
vector 84 SimpleWlanFtp.ap.eth[0].queue outgoingPacketLengths:vector ETV
attr interpolationmode none
attr recordingmode vector
attr source packetLength(packetPulled)
attr title "outgoing packet lengths"
attr unit b
vector 85 SimpleWlanFtp.ap.eth[0].queue outgoingDataRate:vector ETV
attr interpolationmode linear
attr recordingmode vector
attr source throughput(packetPulled)
attr title "outgoing datarate"
attr unit bps
vector 86 SimpleWlanFtp.ap.eth[0].queue droppedPacketLengthsQueueOverflow:vector ETV
attr interpolationmode none
attr recordingmode vector
attr source packetLength(packetDropReasonIsQueueOverflow(packetDropped))
attr title "dropped packet lengths: queue overflow"
attr unit b
vector 87 SimpleWlanFtp.ap.eth[0].queue flowQueueingTime:vector ETV
attr interpolationmode none
attr recordingmode vector
attr source queueingTime(demuxFlow(packetPulled))
attr title "flow queueing times"
attr unit s
vector 88 SimpleWlanFtp.ap.eth[0].queue flowIncomingDataRate:vector ETV
attr interpolationmode linear
attr recordingmode vector
attr source throughput(flowPacketLength(demuxFlow(packetPushStarted)))
attr title "flow specific incoming data rate"
attr unit bps
vector 89 SimpleWlanFtp.ap.eth[0].queue flowOutgoingDataRate:vector ETV
attr interpolationmode linear
attr recordingmode vector
attr source throughput(flowPacketLength(demuxFlow(packetPulled)))
attr title "flow specific outgoing data rate"
attr unit bps
vector 90 SimpleWlanFtp.ap.eth[0].mac txPk:vector(packetBytes) ETV
attr interpolationmode none
attr recordingmode vector(packetBytes)
attr source packetSentToLower
attr title "packets transmitted, packetBytes"
vector 91 SimpleWlanFtp.ap.eth[0].mac rxPkOk:vector(packetBytes) ETV
attr interpolationmode none
attr recordingmode vector(packetBytes)
attr source rxPkOk
attr title "packets received OK, packetBytes"
vector 92 SimpleWlanFtp.ap.eth[0].mac passedUpPk:vector(packetBytes) ETV
attr interpolationmode none
attr recordingmode vector(packetBytes)
attr source packetSentToUpper
attr title "packets passed to higher layer, packetBytes"
vector 93 SimpleWlanFtp.ap.eth[0].mac txPausePkUnits:vector ETV
attr interpolationmode none
attr recordingmode vector
attr title "pause units sent"
vector 94 SimpleWlanFtp.ap.eth[0].mac rxPausePkUnits:vector ETV
attr interpolationmode none
attr recordingmode vector
attr title "pause units received"
vector 95 SimpleWlanFtp.ap.eth[0].mac packetReceivedFromUpper:vector(packetBytes) ETV
attr interpolationmode none
attr recordingmode vector(packetBytes)
attr source packetReceivedFromUpper
attr title "packet bytes from higher layer, packetBytes"
vector 96 SimpleWlanFtp.ap.eth[0].mac packetDropIncorrectlyReceived:vector(packetBytes) ETV
attr interpolationmode none
attr recordingmode vector(packetBytes)
attr source packetDropReasonIsIncorrectlyReceived(packetDropped)
attr title "packet drop: incorrectly received, packetBytes"
vector 97 SimpleWlanFtp.ap.eth[0].mac packetDropInterfaceDown:vector(packetBytes) ETV
attr interpolationmode none
attr recordingmode vector(packetBytes)
attr source packetDropReasonIsInterfaceDown(packetDropped)
attr title "packet drop: interface down, packetBytes"
vector 98 SimpleWlanFtp.ap.eth[0].mac packetDropNotAddressedToUs:vector(packetBytes) ETV
attr interpolationmode none
attr recordingmode vector(packetBytes)
attr source packetDropReasonIsNotAddressedToUs(packetDropped)
attr title "packet drop: not addressed to us, packetBytes"
vector 99 SimpleWlanFtp.ap.eth[0] packetDropInterfaceDown:vector(packetBytes) ETV
attr interpolationmode none
attr recordingmode vector(packetBytes)
attr source packetDropReasonIsInterfaceDown(packetDropped)
attr title "packet drops: interface down, packetBytes"
vector 100 SimpleWlanFtp.ap.eth[0] packetDropNoCarrier:vector(packetBytes) ETV
attr interpolationmode none
attr recordingmode vector(packetBytes)
attr source packetDropReasonIsNoCarrier(packetDropped)
attr title "packet drops: no carrier, packetBytes"
vector 101 SimpleWlanFtp.dsl_router.ethernet encapPk:vector(packetBytes) ETV
attr interpolationmode none
attr recordingmode vector(packetBytes)
attr source encapPk
attr title "packets encapsulated, packetBytes"
vector 102 SimpleWlanFtp.dsl_router.ethernet decapPk:vector(packetBytes) ETV
attr interpolationmode none
attr recordingmode vector(packetBytes)
attr source decapPk
attr title "packets decapsulated, packetBytes"
vector 103 SimpleWlanFtp.dsl_router.ethernet pauseSent:vector ETV
attr recordingmode vector
attr title "pause sent"
vector 104 SimpleWlanFtp.dsl_router.lo[0].lo rcvdPkFromHl:vector(packetBytes) ETV
attr interpolationmode none
attr recordingmode vector(packetBytes)
attr source packetReceivedFromUpper
attr title "packets received from higher layer, packetBytes"
vector 105 SimpleWlanFtp.dsl_router.lo[0].lo passedUpPk:vector(packetBytes) ETV
attr interpolationmode none
attr recordingmode vector(packetBytes)
attr source packetSentToUpper
attr title "packets passed to higher layer, packetBytes"
vector 106 SimpleWlanFtp.dsl_router.lo[0] packetDropInterfaceDown:vector(packetBytes) ETV
attr interpolationmode none
attr recordingmode vector(packetBytes)
attr source packetDropReasonIsInterfaceDown(packetDropped)
attr title "packet drops: interface down, packetBytes"
vector 107 SimpleWlanFtp.dsl_router.lo[0] packetDropNoCarrier:vector(packetBytes) ETV
attr interpolationmode none
attr recordingmode vector(packetBytes)
attr source packetDropReasonIsNoCarrier(packetDropped)
attr title "packet drops: no carrier, packetBytes"
vector 108 SimpleWlanFtp.dsl_router.ppp[0].queue queueLength:vector ETV
attr autoWarmupFilter false
attr interpolationmode sample-hold
attr recordingmode vector
attr source "warmup(atomic(constant0(packetPushEnded) + count(packetPushStarted) - count(packetPulled) - count(packetRemoved) - count(packetDropped)))"
attr title "queue length"
attr unit pk
vector 109 SimpleWlanFtp.dsl_router.ppp[0].queue queueBitLength:vector ETV
attr autoWarmupFilter false
attr interpolationmode sample-hold
attr recordingmode vector
attr source "warmup(atomic(constant0(packetPushEnded) + sum(packetLength(packetPushStarted)) - sum(packetLength(packetPulled)) - sum(packetLength(packetRemoved)) - sum(packetLength(packetDropped))))"
attr title "queue bit length"
attr unit b
vector 110 SimpleWlanFtp.dsl_router.ppp[0].queue queueingTime:vector ETV
attr interpolationmode none
attr recordingmode vector
attr source queueingTime(packetPulled)
attr title "queueing times"
attr unit s
vector 111 SimpleWlanFtp.dsl_router.ppp[0].queue incomingPacketLengths:vector ETV
attr interpolationmode none
attr recordingmode vector
attr source packetLength(packetPushStarted)
attr title "incoming packet lengths"
attr unit b
vector 112 SimpleWlanFtp.dsl_router.ppp[0].queue incomingDataRate:vector ETV
attr interpolationmode linear
attr recordingmode vector
attr source throughput(packetPushStarted)
attr title "incoming datarate"
attr unit bps
vector 113 SimpleWlanFtp.dsl_router.ppp[0].queue outgoingPacketLengths:vector ETV
attr interpolationmode none
attr recordingmode vector
attr source packetLength(packetPulled)
attr title "outgoing packet lengths"
attr unit b
vector 114 SimpleWlanFtp.dsl_router.ppp[0].queue outgoingDataRate:vector ETV
attr interpolationmode linear
attr recordingmode vector
attr source throughput(packetPulled)
attr title "outgoing datarate"
attr unit bps
vector 115 SimpleWlanFtp.dsl_router.ppp[0].queue droppedPacketLengthsQueueOverflow:vector ETV
attr interpolationmode none
attr recordingmode vector
attr source packetLength(packetDropReasonIsQueueOverflow(packetDropped))
attr title "dropped packet lengths: queue overflow"
attr unit b
vector 116 SimpleWlanFtp.dsl_router.ppp[0].queue flowQueueingTime:vector ETV
attr interpolationmode none
attr recordingmode vector
attr source queueingTime(demuxFlow(packetPulled))
attr title "flow queueing times"
attr unit s
vector 117 SimpleWlanFtp.dsl_router.ppp[0].queue flowIncomingDataRate:vector ETV
attr interpolationmode linear
attr recordingmode vector
attr source throughput(flowPacketLength(demuxFlow(packetPushStarted)))
attr title "flow specific incoming data rate"
attr unit bps
vector 118 SimpleWlanFtp.dsl_router.ppp[0].queue flowOutgoingDataRate:vector ETV
attr interpolationmode linear
attr recordingmode vector
attr source throughput(flowPacketLength(demuxFlow(packetPulled)))
attr title "flow specific outgoing data rate"
attr unit bps
vector 119 SimpleWlanFtp.dsl_router.ppp[0].ppp transmissionState:vector ETV
attr interpolationmode sample-hold
attr recordingmode vector
attr source transmissionStateChanged
attr title "tx state"
vector 120 SimpleWlanFtp.dsl_router.ppp[0].ppp txPk:vector(packetBytes) ETV
attr interpolationmode none
attr recordingmode vector(packetBytes)
attr source packetSentToLower
attr title "packets transmitted, packetBytes"
vector 121 SimpleWlanFtp.dsl_router.ppp[0].ppp rxPkOk:vector(packetBytes) ETV
attr interpolationmode none
attr recordingmode vector(packetBytes)
attr source rxPkOk
attr title "packets received OK, packetBytes"
vector 122 SimpleWlanFtp.dsl_router.ppp[0].ppp packetDropIncorrectlyReceived:vector(packetBytes) ETV
attr interpolationmode none
attr recordingmode vector(packetBytes)
attr source packetDropReasonIsIncorrectlyReceived(packetDropped)
attr title "packet drop: incorrectly received, packetBytes"
vector 123 SimpleWlanFtp.dsl_router.ppp[0].ppp packetDropInterfaceDown:vector(packetBytes) ETV
attr interpolationmode none
attr recordingmode vector(packetBytes)
attr source packetDropReasonIsInterfaceDown(packetDropped)
attr title "packet drop: interface down, packetBytes"
vector 124 SimpleWlanFtp.dsl_router.ppp[0].ppp rcvdPkFromHl:vector(packetBytes) ETV
attr interpolationmode none
attr recordingmode vector(packetBytes)
attr source packetReceivedFromUpper
attr title "packets received from higher layer, packetBytes"
vector 125 SimpleWlanFtp.dsl_router.ppp[0].ppp passedUpPk:vector(packetBytes) ETV
attr interpolationmode none
attr recordingmode vector(packetBytes)
attr source packetSentToUpper
attr title "packets passed to higher layer, packetBytes"
vector 126 SimpleWlanFtp.dsl_router.ppp[0] packetDropInterfaceDown:vector(packetBytes) ETV
attr interpolationmode none
attr recordingmode vector(packetBytes)
attr source packetDropReasonIsInterfaceDown(packetDropped)
attr title "packet drops: interface down, packetBytes"
vector 127 SimpleWlanFtp.dsl_router.ppp[0] packetDropNoCarrier:vector(packetBytes) ETV
attr interpolationmode none
attr recordingmode vector(packetBytes)
attr source packetDropReasonIsNoCarrier(packetDropped)
attr title "packet drops: no carrier, packetBytes"
vector 128 SimpleWlanFtp.dsl_router.eth[0].queue queueLength:vector ETV
attr autoWarmupFilter false
attr interpolationmode sample-hold
attr recordingmode vector
attr source "warmup(atomic(constant0(packetPushEnded) + count(packetPushStarted) - count(packetPulled) - count(packetRemoved) - count(packetDropped)))"
attr title "queue length"
attr unit pk
vector 129 SimpleWlanFtp.dsl_router.eth[0].queue queueBitLength:vector ETV
attr autoWarmupFilter false
attr interpolationmode sample-hold
attr recordingmode vector
attr source "warmup(atomic(constant0(packetPushEnded) + sum(packetLength(packetPushStarted)) - sum(packetLength(packetPulled)) - sum(packetLength(packetRemoved)) - sum(packetLength(packetDropped))))"
attr title "queue bit length"
attr unit b
vector 130 SimpleWlanFtp.dsl_router.eth[0].queue queueingTime:vector ETV
attr interpolationmode none
attr recordingmode vector
attr source queueingTime(packetPulled)
attr title "queueing times"
attr unit s
vector 131 SimpleWlanFtp.dsl_router.eth[0].queue incomingPacketLengths:vector ETV
attr interpolationmode none
attr recordingmode vector
attr source packetLength(packetPushStarted)
attr title "incoming packet lengths"
attr unit b
vector 132 SimpleWlanFtp.dsl_router.eth[0].queue incomingDataRate:vector ETV
attr interpolationmode linear
attr recordingmode vector
attr source throughput(packetPushStarted)
attr title "incoming datarate"
attr unit bps
vector 133 SimpleWlanFtp.dsl_router.eth[0].queue outgoingPacketLengths:vector ETV
attr interpolationmode none
attr recordingmode vector
attr source packetLength(packetPulled)
attr title "outgoing packet lengths"
attr unit b
vector 134 SimpleWlanFtp.dsl_router.eth[0].queue outgoingDataRate:vector ETV
attr interpolationmode linear
attr recordingmode vector
attr source throughput(packetPulled)
attr title "outgoing datarate"
attr unit bps
vector 135 SimpleWlanFtp.dsl_router.eth[0].queue droppedPacketLengthsQueueOverflow:vector ETV
attr interpolationmode none
attr recordingmode vector
attr source packetLength(packetDropReasonIsQueueOverflow(packetDropped))
attr title "dropped packet lengths: queue overflow"
attr unit b
vector 136 SimpleWlanFtp.dsl_router.eth[0].queue flowQueueingTime:vector ETV
attr interpolationmode none
attr recordingmode vector
attr source queueingTime(demuxFlow(packetPulled))
attr title "flow queueing times"
attr unit s
vector 137 SimpleWlanFtp.dsl_router.eth[0].queue flowIncomingDataRate:vector ETV
attr interpolationmode linear
attr recordingmode vector
attr source throughput(flowPacketLength(demuxFlow(packetPushStarted)))
attr title "flow specific incoming data rate"
attr unit bps
vector 138 SimpleWlanFtp.dsl_router.eth[0].queue flowOutgoingDataRate:vector ETV
attr interpolationmode linear
attr recordingmode vector
attr source throughput(flowPacketLength(demuxFlow(packetPulled)))
attr title "flow specific outgoing data rate"
attr unit bps
vector 139 SimpleWlanFtp.dsl_router.eth[0].mac txPk:vector(packetBytes) ETV
attr interpolationmode none
attr recordingmode vector(packetBytes)
attr source packetSentToLower
attr title "packets transmitted, packetBytes"
vector 140 SimpleWlanFtp.dsl_router.eth[0].mac rxPkOk:vector(packetBytes) ETV
attr interpolationmode none
attr recordingmode vector(packetBytes)
attr source rxPkOk
attr title "packets received OK, packetBytes"
vector 141 SimpleWlanFtp.dsl_router.eth[0].mac passedUpPk:vector(packetBytes) ETV
attr interpolationmode none
attr recordingmode vector(packetBytes)
attr source packetSentToUpper
attr title "packets passed to higher layer, packetBytes"
vector 142 SimpleWlanFtp.dsl_router.eth[0].mac txPausePkUnits:vector ETV
attr interpolationmode none
attr recordingmode vector
attr title "pause units sent"
vector 143 SimpleWlanFtp.dsl_router.eth[0].mac rxPausePkUnits:vector ETV
attr interpolationmode none
attr recordingmode vector
attr title "pause units received"
vector 144 SimpleWlanFtp.dsl_router.eth[0].mac packetReceivedFromUpper:vector(packetBytes) ETV
attr interpolationmode none
attr recordingmode vector(packetBytes)
attr source packetReceivedFromUpper
attr title "packet bytes from higher layer, packetBytes"
vector 145 SimpleWlanFtp.dsl_router.eth[0].mac packetDropIncorrectlyReceived:vector(packetBytes) ETV
attr interpolationmode none
attr recordingmode vector(packetBytes)
attr source packetDropReasonIsIncorrectlyReceived(packetDropped)
attr title "packet drop: incorrectly received, packetBytes"
vector 146 SimpleWlanFtp.dsl_router.eth[0].mac packetDropInterfaceDown:vector(packetBytes) ETV
attr interpolationmode none
attr recordingmode vector(packetBytes)
attr source packetDropReasonIsInterfaceDown(packetDropped)
attr title "packet drop: interface down, packetBytes"
vector 147 SimpleWlanFtp.dsl_router.eth[0].mac packetDropNotAddressedToUs:vector(packetBytes) ETV
attr interpolationmode none
attr recordingmode vector(packetBytes)
attr source packetDropReasonIsNotAddressedToUs(packetDropped)
attr title "packet drop: not addressed to us, packetBytes"
vector 148 SimpleWlanFtp.dsl_router.eth[0] packetDropInterfaceDown:vector(packetBytes) ETV
attr interpolationmode none
attr recordingmode vector(packetBytes)
attr source packetDropReasonIsInterfaceDown(packetDropped)
attr title "packet drops: interface down, packetBytes"
vector 149 SimpleWlanFtp.dsl_router.eth[0] packetDropNoCarrier:vector(packetBytes) ETV
attr interpolationmode none
attr recordingmode vector(packetBytes)
attr source packetDropReasonIsNoCarrier(packetDropped)
attr title "packet drops: no carrier, packetBytes"
vector 150 SimpleWlanFtp.dsl_router.ipv4.ip packetDropAddressResolutionFailed:vector(packetBytes) ETV
attr interpolationmode none
attr recordingmode vector(packetBytes)
attr source packetDropReasonIsAddressResolutionFailed(packetDropped)
attr title "packet drop: address resolution failed, packetBytes"
vector 151 SimpleWlanFtp.dsl_router.ipv4.ip packetDropHopLimitReached:vector(packetBytes) ETV
attr interpolationmode none
attr recordingmode vector(packetBytes)
attr source packetDropReasonIsHopLimitReached(packetDropped)
attr title "packet drop: hop limit reached, packetBytes"
vector 152 SimpleWlanFtp.dsl_router.ipv4.ip packetDropForwardingDisabled:vector(packetBytes) ETV
attr interpolationmode none
attr recordingmode vector(packetBytes)
attr source packetDropReasonIsForwardingDisabled(packetDropped)
attr title "packet drop: forwarding disabled, packetBytes"
vector 153 SimpleWlanFtp.dsl_router.ipv4.ip packetDropNoInterfaceFound:vector(packetBytes) ETV
attr interpolationmode none
attr recordingmode vector(packetBytes)
attr source packetDropReasonIsNoInterfaceFound(packetDropped)
attr title "packet drop: no interface found, packetBytes"
vector 154 SimpleWlanFtp.dsl_router.ipv4.ip packetDropNoRouteFound:vector(packetBytes) ETV
attr interpolationmode none
attr recordingmode vector(packetBytes)
attr source packetDropReasonIsNoRouteFound(packetDropped)
attr title "packet drop: no route found, packetBytes"
vector 155 SimpleWlanFtp.dsl_router.ipv4.ip packetDropUndefined:vector(packetBytes) ETV
attr interpolationmode none
attr recordingmode vector(packetBytes)
attr source packetDropReasonIsUndefined(packetDropped)
attr title "packet drop: undefined, packetBytes"
vector 156 SimpleWlanFtp.dsl_router.ipv4.arp arpRequestSent:vector(packetBytes) ETV
attr recordingmode vector(packetBytes)
attr source arpRequestSent
attr title "ARP request sent, packetBytes"
vector 157 SimpleWlanFtp.dsl_router.ipv4.arp arpReplySent:vector(packetBytes) ETV
attr recordingmode vector(packetBytes)
attr source arpReplySent
attr title "ARP replies sent, packetBytes"
vector 158 SimpleWlanFtp.isp_router.ethernet encapPk:vector(packetBytes) ETV
attr interpolationmode none
attr recordingmode vector(packetBytes)
attr source encapPk
attr title "packets encapsulated, packetBytes"
vector 159 SimpleWlanFtp.isp_router.ethernet decapPk:vector(packetBytes) ETV
attr interpolationmode none
attr recordingmode vector(packetBytes)
attr source decapPk
attr title "packets decapsulated, packetBytes"
vector 160 SimpleWlanFtp.isp_router.ethernet pauseSent:vector ETV
attr recordingmode vector
attr title "pause sent"
vector 161 SimpleWlanFtp.isp_router.lo[0].lo rcvdPkFromHl:vector(packetBytes) ETV
attr interpolationmode none
attr recordingmode vector(packetBytes)
attr source packetReceivedFromUpper
attr title "packets received from higher layer, packetBytes"
vector 162 SimpleWlanFtp.isp_router.lo[0].lo passedUpPk:vector(packetBytes) ETV
attr interpolationmode none
attr recordingmode vector(packetBytes)
attr source packetSentToUpper
attr title "packets passed to higher layer, packetBytes"
vector 163 SimpleWlanFtp.isp_router.lo[0] packetDropInterfaceDown:vector(packetBytes) ETV
attr interpolationmode none
attr recordingmode vector(packetBytes)
attr source packetDropReasonIsInterfaceDown(packetDropped)
attr title "packet drops: interface down, packetBytes"
vector 164 SimpleWlanFtp.isp_router.lo[0] packetDropNoCarrier:vector(packetBytes) ETV
attr interpolationmode none
attr recordingmode vector(packetBytes)
attr source packetDropReasonIsNoCarrier(packetDropped)
attr title "packet drops: no carrier, packetBytes"
vector 165 SimpleWlanFtp.isp_router.ppp[0].queue queueLength:vector ETV
attr autoWarmupFilter false
attr interpolationmode sample-hold
attr recordingmode vector
attr source "warmup(atomic(constant0(packetPushEnded) + count(packetPushStarted) - count(packetPulled) - count(packetRemoved) - count(packetDropped)))"
attr title "queue length"
attr unit pk
vector 166 SimpleWlanFtp.isp_router.ppp[0].queue queueBitLength:vector ETV
attr autoWarmupFilter false
attr interpolationmode sample-hold
attr recordingmode vector
attr source "warmup(atomic(constant0(packetPushEnded) + sum(packetLength(packetPushStarted)) - sum(packetLength(packetPulled)) - sum(packetLength(packetRemoved)) - sum(packetLength(packetDropped))))"
attr title "queue bit length"
attr unit b
vector 167 SimpleWlanFtp.isp_router.ppp[0].queue queueingTime:vector ETV
attr interpolationmode none
attr recordingmode vector
attr source queueingTime(packetPulled)
attr title "queueing times"
attr unit s
vector 168 SimpleWlanFtp.isp_router.ppp[0].queue incomingPacketLengths:vector ETV
attr interpolationmode none
attr recordingmode vector
attr source packetLength(packetPushStarted)
attr title "incoming packet lengths"
attr unit b
vector 169 SimpleWlanFtp.isp_router.ppp[0].queue incomingDataRate:vector ETV
attr interpolationmode linear
attr recordingmode vector
attr source throughput(packetPushStarted)
attr title "incoming datarate"
attr unit bps
vector 170 SimpleWlanFtp.isp_router.ppp[0].queue outgoingPacketLengths:vector ETV
attr interpolationmode none
attr recordingmode vector
attr source packetLength(packetPulled)
attr title "outgoing packet lengths"
attr unit b
vector 171 SimpleWlanFtp.isp_router.ppp[0].queue outgoingDataRate:vector ETV
attr interpolationmode linear
attr recordingmode vector
attr source throughput(packetPulled)
attr title "outgoing datarate"
attr unit bps
vector 172 SimpleWlanFtp.isp_router.ppp[0].queue droppedPacketLengthsQueueOverflow:vector ETV
attr interpolationmode none
attr recordingmode vector
attr source packetLength(packetDropReasonIsQueueOverflow(packetDropped))
attr title "dropped packet lengths: queue overflow"
attr unit b
vector 173 SimpleWlanFtp.isp_router.ppp[0].queue flowQueueingTime:vector ETV
attr interpolationmode none
attr recordingmode vector
attr source queueingTime(demuxFlow(packetPulled))
attr title "flow queueing times"
attr unit s
vector 174 SimpleWlanFtp.isp_router.ppp[0].queue flowIncomingDataRate:vector ETV
attr interpolationmode linear
attr recordingmode vector
attr source throughput(flowPacketLength(demuxFlow(packetPushStarted)))
attr title "flow specific incoming data rate"
attr unit bps
vector 175 SimpleWlanFtp.isp_router.ppp[0].queue flowOutgoingDataRate:vector ETV
attr interpolationmode linear
attr recordingmode vector
attr source throughput(flowPacketLength(demuxFlow(packetPulled)))
attr title "flow specific outgoing data rate"
attr unit bps
vector 176 SimpleWlanFtp.isp_router.ppp[0].ppp transmissionState:vector ETV
attr interpolationmode sample-hold
attr recordingmode vector
attr source transmissionStateChanged
attr title "tx state"
vector 177 SimpleWlanFtp.isp_router.ppp[0].ppp txPk:vector(packetBytes) ETV
attr interpolationmode none
attr recordingmode vector(packetBytes)
attr source packetSentToLower
attr title "packets transmitted, packetBytes"
vector 178 SimpleWlanFtp.isp_router.ppp[0].ppp rxPkOk:vector(packetBytes) ETV
attr interpolationmode none
attr recordingmode vector(packetBytes)
attr source rxPkOk
attr title "packets received OK, packetBytes"
vector 179 SimpleWlanFtp.isp_router.ppp[0].ppp packetDropIncorrectlyReceived:vector(packetBytes) ETV
attr interpolationmode none
attr recordingmode vector(packetBytes)
attr source packetDropReasonIsIncorrectlyReceived(packetDropped)
attr title "packet drop: incorrectly received, packetBytes"
vector 180 SimpleWlanFtp.isp_router.ppp[0].ppp packetDropInterfaceDown:vector(packetBytes) ETV
attr interpolationmode none
attr recordingmode vector(packetBytes)
attr source packetDropReasonIsInterfaceDown(packetDropped)
attr title "packet drop: interface down, packetBytes"
vector 181 SimpleWlanFtp.isp_router.ppp[0].ppp rcvdPkFromHl:vector(packetBytes) ETV
attr interpolationmode none
attr recordingmode vector(packetBytes)
attr source packetReceivedFromUpper
attr title "packets received from higher layer, packetBytes"
vector 182 SimpleWlanFtp.isp_router.ppp[0].ppp passedUpPk:vector(packetBytes) ETV
attr interpolationmode none
attr recordingmode vector(packetBytes)
attr source packetSentToUpper
attr title "packets passed to higher layer, packetBytes"
vector 183 SimpleWlanFtp.isp_router.ppp[0] packetDropInterfaceDown:vector(packetBytes) ETV
attr interpolationmode none
attr recordingmode vector(packetBytes)
attr source packetDropReasonIsInterfaceDown(packetDropped)
attr title "packet drops: interface down, packetBytes"
vector 184 SimpleWlanFtp.isp_router.ppp[0] packetDropNoCarrier:vector(packetBytes) ETV
attr interpolationmode none
attr recordingmode vector(packetBytes)
attr source packetDropReasonIsNoCarrier(packetDropped)
attr title "packet drops: no carrier, packetBytes"
vector 185 SimpleWlanFtp.isp_router.eth[0].queue queueLength:vector ETV
attr autoWarmupFilter false
attr interpolationmode sample-hold
attr recordingmode vector
attr source "warmup(atomic(constant0(packetPushEnded) + count(packetPushStarted) - count(packetPulled) - count(packetRemoved) - count(packetDropped)))"
attr title "queue length"
attr unit pk
vector 186 SimpleWlanFtp.isp_router.eth[0].queue queueBitLength:vector ETV
attr autoWarmupFilter false
attr interpolationmode sample-hold
attr recordingmode vector
attr source "warmup(atomic(constant0(packetPushEnded) + sum(packetLength(packetPushStarted)) - sum(packetLength(packetPulled)) - sum(packetLength(packetRemoved)) - sum(packetLength(packetDropped))))"
attr title "queue bit length"
attr unit b
vector 187 SimpleWlanFtp.isp_router.eth[0].queue queueingTime:vector ETV
attr interpolationmode none
attr recordingmode vector
attr source queueingTime(packetPulled)
attr title "queueing times"
attr unit s
vector 188 SimpleWlanFtp.isp_router.eth[0].queue incomingPacketLengths:vector ETV
attr interpolationmode none
attr recordingmode vector
attr source packetLength(packetPushStarted)
attr title "incoming packet lengths"
attr unit b
vector 189 SimpleWlanFtp.isp_router.eth[0].queue incomingDataRate:vector ETV
attr interpolationmode linear
attr recordingmode vector
attr source throughput(packetPushStarted)
attr title "incoming datarate"
attr unit bps
vector 190 SimpleWlanFtp.isp_router.eth[0].queue outgoingPacketLengths:vector ETV
attr interpolationmode none
attr recordingmode vector
attr source packetLength(packetPulled)
attr title "outgoing packet lengths"
attr unit b
vector 191 SimpleWlanFtp.isp_router.eth[0].queue outgoingDataRate:vector ETV
attr interpolationmode linear
attr recordingmode vector
attr source throughput(packetPulled)
attr title "outgoing datarate"
attr unit bps
vector 192 SimpleWlanFtp.isp_router.eth[0].queue droppedPacketLengthsQueueOverflow:vector ETV
attr interpolationmode none
attr recordingmode vector
attr source packetLength(packetDropReasonIsQueueOverflow(packetDropped))
attr title "dropped packet lengths: queue overflow"
attr unit b
vector 193 SimpleWlanFtp.isp_router.eth[0].queue flowQueueingTime:vector ETV
attr interpolationmode none
attr recordingmode vector
attr source queueingTime(demuxFlow(packetPulled))
attr title "flow queueing times"
attr unit s
vector 194 SimpleWlanFtp.isp_router.eth[0].queue flowIncomingDataRate:vector ETV
attr interpolationmode linear
attr recordingmode vector
attr source throughput(flowPacketLength(demuxFlow(packetPushStarted)))
attr title "flow specific incoming data rate"
attr unit bps
vector 195 SimpleWlanFtp.isp_router.eth[0].queue flowOutgoingDataRate:vector ETV
attr interpolationmode linear
attr recordingmode vector
attr source throughput(flowPacketLength(demuxFlow(packetPulled)))
attr title "flow specific outgoing data rate"
attr unit bps
vector 196 SimpleWlanFtp.isp_router.eth[0].mac txPk:vector(packetBytes) ETV
attr interpolationmode none
attr recordingmode vector(packetBytes)
attr source packetSentToLower
attr title "packets transmitted, packetBytes"
vector 197 SimpleWlanFtp.isp_router.eth[0].mac rxPkOk:vector(packetBytes) ETV
attr interpolationmode none
attr recordingmode vector(packetBytes)
attr source rxPkOk
attr title "packets received OK, packetBytes"
vector 198 SimpleWlanFtp.isp_router.eth[0].mac passedUpPk:vector(packetBytes) ETV
attr interpolationmode none
attr recordingmode vector(packetBytes)
attr source packetSentToUpper
attr title "packets passed to higher layer, packetBytes"
vector 199 SimpleWlanFtp.isp_router.eth[0].mac txPausePkUnits:vector ETV
attr interpolationmode none
attr recordingmode vector
attr title "pause units sent"
vector 200 SimpleWlanFtp.isp_router.eth[0].mac rxPausePkUnits:vector ETV
attr interpolationmode none
attr recordingmode vector
attr title "pause units received"
vector 201 SimpleWlanFtp.isp_router.eth[0].mac packetReceivedFromUpper:vector(packetBytes) ETV
attr interpolationmode none
attr recordingmode vector(packetBytes)
attr source packetReceivedFromUpper
attr title "packet bytes from higher layer, packetBytes"
vector 202 SimpleWlanFtp.isp_router.eth[0].mac packetDropIncorrectlyReceived:vector(packetBytes) ETV
attr interpolationmode none
attr recordingmode vector(packetBytes)
attr source packetDropReasonIsIncorrectlyReceived(packetDropped)
attr title "packet drop: incorrectly received, packetBytes"
vector 203 SimpleWlanFtp.isp_router.eth[0].mac packetDropInterfaceDown:vector(packetBytes) ETV
attr interpolationmode none
attr recordingmode vector(packetBytes)
attr source packetDropReasonIsInterfaceDown(packetDropped)
attr title "packet drop: interface down, packetBytes"
vector 204 SimpleWlanFtp.isp_router.eth[0].mac packetDropNotAddressedToUs:vector(packetBytes) ETV
attr interpolationmode none
attr recordingmode vector(packetBytes)
attr source packetDropReasonIsNotAddressedToUs(packetDropped)
attr title "packet drop: not addressed to us, packetBytes"
vector 205 SimpleWlanFtp.isp_router.eth[0] packetDropInterfaceDown:vector(packetBytes) ETV
attr interpolationmode none
attr recordingmode vector(packetBytes)
attr source packetDropReasonIsInterfaceDown(packetDropped)
attr title "packet drops: interface down, packetBytes"
vector 206 SimpleWlanFtp.isp_router.eth[0] packetDropNoCarrier:vector(packetBytes) ETV
attr interpolationmode none
attr recordingmode vector(packetBytes)
attr source packetDropReasonIsNoCarrier(packetDropped)
attr title "packet drops: no carrier, packetBytes"
vector 207 SimpleWlanFtp.isp_router.ipv4.ip packetDropAddressResolutionFailed:vector(packetBytes) ETV
attr interpolationmode none
attr recordingmode vector(packetBytes)
attr source packetDropReasonIsAddressResolutionFailed(packetDropped)
attr title "packet drop: address resolution failed, packetBytes"
vector 208 SimpleWlanFtp.isp_router.ipv4.ip packetDropHopLimitReached:vector(packetBytes) ETV
attr interpolationmode none
attr recordingmode vector(packetBytes)
attr source packetDropReasonIsHopLimitReached(packetDropped)
attr title "packet drop: hop limit reached, packetBytes"
vector 209 SimpleWlanFtp.isp_router.ipv4.ip packetDropForwardingDisabled:vector(packetBytes) ETV
attr interpolationmode none
attr recordingmode vector(packetBytes)
attr source packetDropReasonIsForwardingDisabled(packetDropped)
attr title "packet drop: forwarding disabled, packetBytes"
vector 210 SimpleWlanFtp.isp_router.ipv4.ip packetDropNoInterfaceFound:vector(packetBytes) ETV
attr interpolationmode none
attr recordingmode vector(packetBytes)
attr source packetDropReasonIsNoInterfaceFound(packetDropped)
attr title "packet drop: no interface found, packetBytes"
vector 211 SimpleWlanFtp.isp_router.ipv4.ip packetDropNoRouteFound:vector(packetBytes) ETV
attr interpolationmode none
attr recordingmode vector(packetBytes)
attr source packetDropReasonIsNoRouteFound(packetDropped)
attr title "packet drop: no route found, packetBytes"
vector 212 SimpleWlanFtp.isp_router.ipv4.ip packetDropUndefined:vector(packetBytes) ETV
attr interpolationmode none
attr recordingmode vector(packetBytes)
attr source packetDropReasonIsUndefined(packetDropped)
attr title "packet drop: undefined, packetBytes"
vector 213 SimpleWlanFtp.isp_router.ipv4.arp arpRequestSent:vector(packetBytes) ETV
attr recordingmode vector(packetBytes)
attr source arpRequestSent
attr title "ARP request sent, packetBytes"
vector 214 SimpleWlanFtp.isp_router.ipv4.arp arpReplySent:vector(packetBytes) ETV
attr recordingmode vector(packetBytes)
attr source arpReplySent
attr title "ARP replies sent, packetBytes"
vector 215 SimpleWlanFtp.ftp_srv.ethernet encapPk:vector(packetBytes) ETV
attr interpolationmode none
attr recordingmode vector(packetBytes)
attr source encapPk
attr title "packets encapsulated, packetBytes"
vector 216 SimpleWlanFtp.ftp_srv.ethernet decapPk:vector(packetBytes) ETV
attr interpolationmode none
attr recordingmode vector(packetBytes)
attr source decapPk
attr title "packets decapsulated, packetBytes"
vector 217 SimpleWlanFtp.ftp_srv.ethernet pauseSent:vector ETV
attr recordingmode vector
attr title "pause sent"
vector 218 SimpleWlanFtp.ftp_srv.lo[0].lo rcvdPkFromHl:vector(packetBytes) ETV
attr interpolationmode none
attr recordingmode vector(packetBytes)
attr source packetReceivedFromUpper
attr title "packets received from higher layer, packetBytes"
vector 219 SimpleWlanFtp.ftp_srv.lo[0].lo passedUpPk:vector(packetBytes) ETV
attr interpolationmode none
attr recordingmode vector(packetBytes)
attr source packetSentToUpper
attr title "packets passed to higher layer, packetBytes"
vector 220 SimpleWlanFtp.ftp_srv.lo[0] packetDropInterfaceDown:vector(packetBytes) ETV
attr interpolationmode none
attr recordingmode vector(packetBytes)
attr source packetDropReasonIsInterfaceDown(packetDropped)
attr title "packet drops: interface down, packetBytes"
vector 221 SimpleWlanFtp.ftp_srv.lo[0] packetDropNoCarrier:vector(packetBytes) ETV
attr interpolationmode none
attr recordingmode vector(packetBytes)
attr source packetDropReasonIsNoCarrier(packetDropped)
attr title "packet drops: no carrier, packetBytes"
vector 222 SimpleWlanFtp.ftp_srv.eth[0].queue queueLength:vector ETV
attr autoWarmupFilter false
attr interpolationmode sample-hold
attr recordingmode vector
attr source "warmup(atomic(constant0(packetPushEnded) + count(packetPushStarted) - count(packetPulled) - count(packetRemoved) - count(packetDropped)))"
attr title "queue length"
attr unit pk
vector 223 SimpleWlanFtp.ftp_srv.eth[0].queue queueBitLength:vector ETV
attr autoWarmupFilter false
attr interpolationmode sample-hold
attr recordingmode vector
attr source "warmup(atomic(constant0(packetPushEnded) + sum(packetLength(packetPushStarted)) - sum(packetLength(packetPulled)) - sum(packetLength(packetRemoved)) - sum(packetLength(packetDropped))))"
attr title "queue bit length"
attr unit b
vector 224 SimpleWlanFtp.ftp_srv.eth[0].queue queueingTime:vector ETV
attr interpolationmode none
attr recordingmode vector
attr source queueingTime(packetPulled)
attr title "queueing times"
attr unit s
vector 225 SimpleWlanFtp.ftp_srv.eth[0].queue incomingPacketLengths:vector ETV
attr interpolationmode none
attr recordingmode vector
attr source packetLength(packetPushStarted)
attr title "incoming packet lengths"
attr unit b
vector 226 SimpleWlanFtp.ftp_srv.eth[0].queue incomingDataRate:vector ETV
attr interpolationmode linear
attr recordingmode vector
attr source throughput(packetPushStarted)
attr title "incoming datarate"
attr unit bps
vector 227 SimpleWlanFtp.ftp_srv.eth[0].queue outgoingPacketLengths:vector ETV
attr interpolationmode none
attr recordingmode vector
attr source packetLength(packetPulled)
attr title "outgoing packet lengths"
attr unit b
vector 228 SimpleWlanFtp.ftp_srv.eth[0].queue outgoingDataRate:vector ETV
attr interpolationmode linear
attr recordingmode vector
attr source throughput(packetPulled)
attr title "outgoing datarate"
attr unit bps
vector 229 SimpleWlanFtp.ftp_srv.eth[0].queue droppedPacketLengthsQueueOverflow:vector ETV
attr interpolationmode none
attr recordingmode vector
attr source packetLength(packetDropReasonIsQueueOverflow(packetDropped))
attr title "dropped packet lengths: queue overflow"
attr unit b
vector 230 SimpleWlanFtp.ftp_srv.eth[0].queue flowQueueingTime:vector ETV
attr interpolationmode none
attr recordingmode vector
attr source queueingTime(demuxFlow(packetPulled))
attr title "flow queueing times"
attr unit s
vector 231 SimpleWlanFtp.ftp_srv.eth[0].queue flowIncomingDataRate:vector ETV
attr interpolationmode linear
attr recordingmode vector
attr source throughput(flowPacketLength(demuxFlow(packetPushStarted)))
attr title "flow specific incoming data rate"
attr unit bps
vector 232 SimpleWlanFtp.ftp_srv.eth[0].queue flowOutgoingDataRate:vector ETV
attr interpolationmode linear
attr recordingmode vector
attr source throughput(flowPacketLength(demuxFlow(packetPulled)))
attr title "flow specific outgoing data rate"
attr unit bps
vector 233 SimpleWlanFtp.ftp_srv.eth[0].mac txPk:vector(packetBytes) ETV
attr interpolationmode none
attr recordingmode vector(packetBytes)
attr source packetSentToLower
attr title "packets transmitted, packetBytes"
vector 234 SimpleWlanFtp.ftp_srv.eth[0].mac rxPkOk:vector(packetBytes) ETV
attr interpolationmode none
attr recordingmode vector(packetBytes)
attr source rxPkOk
attr title "packets received OK, packetBytes"
vector 235 SimpleWlanFtp.ftp_srv.eth[0].mac passedUpPk:vector(packetBytes) ETV
attr interpolationmode none
attr recordingmode vector(packetBytes)
attr source packetSentToUpper
attr title "packets passed to higher layer, packetBytes"
vector 236 SimpleWlanFtp.ftp_srv.eth[0].mac txPausePkUnits:vector ETV
attr interpolationmode none
attr recordingmode vector
attr title "pause units sent"
vector 237 SimpleWlanFtp.ftp_srv.eth[0].mac rxPausePkUnits:vector ETV
attr interpolationmode none
attr recordingmode vector
attr title "pause units received"
vector 238 SimpleWlanFtp.ftp_srv.eth[0].mac packetReceivedFromUpper:vector(packetBytes) ETV
attr interpolationmode none
attr recordingmode vector(packetBytes)
attr source packetReceivedFromUpper
attr title "packet bytes from higher layer, packetBytes"
vector 239 SimpleWlanFtp.ftp_srv.eth[0].mac packetDropIncorrectlyReceived:vector(packetBytes) ETV
attr interpolationmode none
attr recordingmode vector(packetBytes)
attr source packetDropReasonIsIncorrectlyReceived(packetDropped)
attr title "packet drop: incorrectly received, packetBytes"
vector 240 SimpleWlanFtp.ftp_srv.eth[0].mac packetDropInterfaceDown:vector(packetBytes) ETV
attr interpolationmode none
attr recordingmode vector(packetBytes)
attr source packetDropReasonIsInterfaceDown(packetDropped)
attr title "packet drop: interface down, packetBytes"
vector 241 SimpleWlanFtp.ftp_srv.eth[0].mac packetDropNotAddressedToUs:vector(packetBytes) ETV
attr interpolationmode none
attr recordingmode vector(packetBytes)
attr source packetDropReasonIsNotAddressedToUs(packetDropped)
attr title "packet drop: not addressed to us, packetBytes"
vector 242 SimpleWlanFtp.ftp_srv.eth[0] packetDropInterfaceDown:vector(packetBytes) ETV
attr interpolationmode none
attr recordingmode vector(packetBytes)
attr source packetDropReasonIsInterfaceDown(packetDropped)
attr title "packet drops: interface down, packetBytes"
vector 243 SimpleWlanFtp.ftp_srv.eth[0] packetDropNoCarrier:vector(packetBytes) ETV
attr interpolationmode none
attr recordingmode vector(packetBytes)
attr source packetDropReasonIsNoCarrier(packetDropped)
attr title "packet drops: no carrier, packetBytes"
vector 244 SimpleWlanFtp.ftp_srv.ipv4.ip packetDropAddressResolutionFailed:vector(packetBytes) ETV
attr interpolationmode none
attr recordingmode vector(packetBytes)
attr source packetDropReasonIsAddressResolutionFailed(packetDropped)
attr title "packet drop: address resolution failed, packetBytes"
vector 245 SimpleWlanFtp.ftp_srv.ipv4.ip packetDropHopLimitReached:vector(packetBytes) ETV
attr interpolationmode none
attr recordingmode vector(packetBytes)
attr source packetDropReasonIsHopLimitReached(packetDropped)
attr title "packet drop: hop limit reached, packetBytes"
vector 246 SimpleWlanFtp.ftp_srv.ipv4.ip packetDropForwardingDisabled:vector(packetBytes) ETV
attr interpolationmode none
attr recordingmode vector(packetBytes)
attr source packetDropReasonIsForwardingDisabled(packetDropped)
attr title "packet drop: forwarding disabled, packetBytes"
vector 247 SimpleWlanFtp.ftp_srv.ipv4.ip packetDropNoInterfaceFound:vector(packetBytes) ETV
attr interpolationmode none
attr recordingmode vector(packetBytes)
attr source packetDropReasonIsNoInterfaceFound(packetDropped)
attr title "packet drop: no interface found, packetBytes"
vector 248 SimpleWlanFtp.ftp_srv.ipv4.ip packetDropNoRouteFound:vector(packetBytes) ETV
attr interpolationmode none
attr recordingmode vector(packetBytes)
attr source packetDropReasonIsNoRouteFound(packetDropped)
attr title "packet drop: no route found, packetBytes"
vector 249 SimpleWlanFtp.ftp_srv.ipv4.ip packetDropUndefined:vector(packetBytes) ETV
attr interpolationmode none
attr recordingmode vector(packetBytes)
attr source packetDropReasonIsUndefined(packetDropped)
attr title "packet drop: undefined, packetBytes"
vector 250 SimpleWlanFtp.ftp_srv.ipv4.arp arpRequestSent:vector(packetBytes) ETV
attr recordingmode vector(packetBytes)
attr source arpRequestSent
attr title "ARP request sent, packetBytes"
vector 251 SimpleWlanFtp.ftp_srv.ipv4.arp arpReplySent:vector(packetBytes) ETV
attr recordingmode vector(packetBytes)
attr source arpReplySent
attr title "ARP replies sent, packetBytes"
vector 252 SimpleWlanFtp.ftp_srv.udp packetSent:vector(packetBytes) ETV
attr interpolationmode none
attr recordingmode vector(packetBytes)
attr source packetSent
attr title "packets sent, packetBytes"
vector 253 SimpleWlanFtp.ftp_srv.udp packetReceived:vector(packetBytes) ETV
attr interpolationmode none
attr recordingmode vector(packetBytes)
attr source packetReceived
attr title "packets received, packetBytes"
vector 254 SimpleWlanFtp.ftp_srv.udp passedUpPk:vector(count) ETV
attr interpolationmode none
attr recordingmode vector(count)
attr source packetSentToUpper
attr title "packets passed up, count"
vector 255 SimpleWlanFtp.ftp_srv.udp droppedPkWrongPort:vector(count) ETV
attr interpolationmode none
attr recordingmode vector(count)
attr source packetDropReasonIsNoPortFound(packetDropped)
attr title "packets dropped (wrong port), count"
vector 256 SimpleWlanFtp.ftp_srv.udp droppedPkBadChecksum:vector(count) ETV
attr interpolationmode none
attr recordingmode vector(count)
attr source packetDropReasonIsIncorrectlyReceived(packetDropped)
attr title "packets dropped (checksum error), count"
vector 257 SimpleWlanFtp.ftp_srv.app[0] packetReceived:vector(packetBytes) ETV
attr checkSignals false
attr interpolationmode none
attr recordingmode vector(packetBytes)
attr source packetReceived
attr title "packets received, packetBytes"
vector 258 SimpleWlanFtp.ftp_srv.app[0] endToEndDelay:vector ETV
attr checkSignals false
attr interpolationmode none
attr recordingmode vector
attr source dataAge(packetReceived)
attr title "end-to-end delay"
attr unit s
vector 259 SimpleWlanFtp.ftp_srv.tcp.conn-1 state:vector ETV
attr interpolationmode sample-hold
attr recordingmode vector
vector 260 SimpleWlanFtp.ftp_srv.tcp.conn-1 sndWnd:vector ETV
attr interpolationmode sample-hold
attr recordingmode vector
vector 261 SimpleWlanFtp.ftp_srv.tcp.conn-1 rcvWnd:vector ETV
attr interpolationmode sample-hold
attr recordingmode vector
vector 262 SimpleWlanFtp.ftp_srv.tcp.conn-1 rcvAdv:vector ETV
attr interpolationmode sample-hold
attr recordingmode vector
vector 263 SimpleWlanFtp.ftp_srv.tcp.conn-1 sndNxt:vector ETV
attr interpolationmode sample-hold
attr recordingmode vector
vector 264 SimpleWlanFtp.ftp_srv.tcp.conn-1 sndAck:vector ETV
attr interpolationmode sample-hold
attr recordingmode vector
vector 265 SimpleWlanFtp.ftp_srv.tcp.conn-1 rcvSeq:vector ETV
attr interpolationmode sample-hold
attr recordingmode vector
vector 266 SimpleWlanFtp.ftp_srv.tcp.conn-1 rcvAck:vector ETV
attr interpolationmode sample-hold
attr recordingmode vector
vector 267 SimpleWlanFtp.ftp_srv.tcp.conn-1 unacked:vector ETV
attr interpolationmode sample-hold
attr recordingmode vector
vector 268 SimpleWlanFtp.ftp_srv.tcp.conn-1 dupAcks:vector ETV
attr interpolationmode sample-hold
attr recordingmode vector
vector 269 SimpleWlanFtp.ftp_srv.tcp.conn-1 pipe:vector ETV
attr interpolationmode sample-hold
attr recordingmode vector
vector 270 SimpleWlanFtp.ftp_srv.tcp.conn-1 sndSacks:vector ETV
attr interpolationmode sample-hold
attr recordingmode vector
vector 271 SimpleWlanFtp.ftp_srv.tcp.conn-1 rcvSacks:vector ETV
attr interpolationmode sample-hold
attr recordingmode vector
vector 272 SimpleWlanFtp.ftp_srv.tcp.conn-1 rcvOooSeg:vector ETV
attr interpolationmode sample-hold
attr recordingmode vector
vector 273 SimpleWlanFtp.ftp_srv.tcp.conn-1 rcvNASeg:vector ETV
attr interpolationmode sample-hold
attr recordingmode vector
vector 274 SimpleWlanFtp.ftp_srv.tcp.conn-1 sackedBytes:vector ETV
attr interpolationmode sample-hold
attr recordingmode vector
vector 275 SimpleWlanFtp.ftp_srv.tcp.conn-1 tcpRcvQueueBytes:vector ETV
attr interpolationmode sample-hold
attr recordingmode vector
vector 276 SimpleWlanFtp.ftp_srv.tcp.conn-1 tcpRcvQueueDrops:vector ETV
attr interpolationmode sample-hold
attr recordingmode vector
vector 277 SimpleWlanFtp.ftp_srv.tcp.conn-1 tcpRcvPayloadBytes:vector ETV
attr interpolationmode sample-hold
attr recordingmode vector
vector 278 SimpleWlanFtp.ftp_srv.tcp.conn-1 cwnd:vector ETV
attr interpolationmode sample-hold
attr recordingmode vector
vector 279 SimpleWlanFtp.ftp_srv.tcp.conn-1 ssthresh:vector ETV
attr interpolationmode sample-hold
attr recordingmode vector
vector 280 SimpleWlanFtp.ftp_srv.tcp.conn-1 rtt:vector ETV
attr interpolationmode sample-hold
attr recordingmode vector
vector 281 SimpleWlanFtp.ftp_srv.tcp.conn-1 srtt:vector ETV
attr interpolationmode sample-hold
attr recordingmode vector
vector 282 SimpleWlanFtp.ftp_srv.tcp.conn-1 rttvar:vector ETV
attr interpolationmode sample-hold
attr recordingmode vector
vector 283 SimpleWlanFtp.ftp_srv.tcp.conn-1 rto:vector ETV
attr interpolationmode sample-hold
attr recordingmode vector
vector 284 SimpleWlanFtp.ftp_srv.tcp.conn-1 numRtos:vector ETV
attr interpolationmode sample-hold
attr recordingmode vector
vector 285 SimpleWlanFtp.ftp_srv.tcp.conn-1 load:vector ETV
attr interpolationmode sample-hold
attr recordingmode vector
vector 286 SimpleWlanFtp.ftp_srv.tcp.conn-1 calcLoad:vector ETV
attr interpolationmode sample-hold
attr recordingmode vector
vector 287 SimpleWlanFtp.ftp_srv.tcp.conn-1 markingProb:vector ETV
attr interpolationmode sample-hold
attr recordingmode vector
vector 288 SimpleWlanFtp.ftp_cli.tcp.conn-4 state:vector ETV
attr interpolationmode sample-hold
attr recordingmode vector
vector 289 SimpleWlanFtp.ftp_cli.tcp.conn-4 sndWnd:vector ETV
attr interpolationmode sample-hold
attr recordingmode vector
vector 290 SimpleWlanFtp.ftp_cli.tcp.conn-4 rcvWnd:vector ETV
attr interpolationmode sample-hold
attr recordingmode vector
vector 291 SimpleWlanFtp.ftp_cli.tcp.conn-4 rcvAdv:vector ETV
attr interpolationmode sample-hold
attr recordingmode vector
vector 292 SimpleWlanFtp.ftp_cli.tcp.conn-4 sndNxt:vector ETV
attr interpolationmode sample-hold
attr recordingmode vector
vector 293 SimpleWlanFtp.ftp_cli.tcp.conn-4 sndAck:vector ETV
attr interpolationmode sample-hold
attr recordingmode vector
vector 294 SimpleWlanFtp.ftp_cli.tcp.conn-4 rcvSeq:vector ETV
attr interpolationmode sample-hold
attr recordingmode vector
vector 295 SimpleWlanFtp.ftp_cli.tcp.conn-4 rcvAck:vector ETV
attr interpolationmode sample-hold
attr recordingmode vector
vector 296 SimpleWlanFtp.ftp_cli.tcp.conn-4 unacked:vector ETV
attr interpolationmode sample-hold
attr recordingmode vector
vector 297 SimpleWlanFtp.ftp_cli.tcp.conn-4 dupAcks:vector ETV
attr interpolationmode sample-hold
attr recordingmode vector
vector 298 SimpleWlanFtp.ftp_cli.tcp.conn-4 pipe:vector ETV
attr interpolationmode sample-hold
attr recordingmode vector
vector 299 SimpleWlanFtp.ftp_cli.tcp.conn-4 sndSacks:vector ETV
attr interpolationmode sample-hold
attr recordingmode vector
vector 300 SimpleWlanFtp.ftp_cli.tcp.conn-4 rcvSacks:vector ETV
attr interpolationmode sample-hold
attr recordingmode vector
vector 301 SimpleWlanFtp.ftp_cli.tcp.conn-4 rcvOooSeg:vector ETV
attr interpolationmode sample-hold
attr recordingmode vector
vector 302 SimpleWlanFtp.ftp_cli.tcp.conn-4 rcvNASeg:vector ETV
attr interpolationmode sample-hold
attr recordingmode vector
vector 303 SimpleWlanFtp.ftp_cli.tcp.conn-4 sackedBytes:vector ETV
attr interpolationmode sample-hold
attr recordingmode vector
vector 304 SimpleWlanFtp.ftp_cli.tcp.conn-4 tcpRcvQueueBytes:vector ETV
attr interpolationmode sample-hold
attr recordingmode vector
vector 305 SimpleWlanFtp.ftp_cli.tcp.conn-4 tcpRcvQueueDrops:vector ETV
attr interpolationmode sample-hold
attr recordingmode vector
vector 306 SimpleWlanFtp.ftp_cli.tcp.conn-4 tcpRcvPayloadBytes:vector ETV
attr interpolationmode sample-hold
attr recordingmode vector
vector 307 SimpleWlanFtp.ftp_cli.tcp.conn-4 cwnd:vector ETV
attr interpolationmode sample-hold
attr recordingmode vector
vector 308 SimpleWlanFtp.ftp_cli.tcp.conn-4 ssthresh:vector ETV
attr interpolationmode sample-hold
attr recordingmode vector
vector 309 SimpleWlanFtp.ftp_cli.tcp.conn-4 rtt:vector ETV
attr interpolationmode sample-hold
attr recordingmode vector
vector 310 SimpleWlanFtp.ftp_cli.tcp.conn-4 srtt:vector ETV
attr interpolationmode sample-hold
attr recordingmode vector
vector 311 SimpleWlanFtp.ftp_cli.tcp.conn-4 rttvar:vector ETV
attr interpolationmode sample-hold
attr recordingmode vector
vector 312 SimpleWlanFtp.ftp_cli.tcp.conn-4 rto:vector ETV
attr interpolationmode sample-hold
attr recordingmode vector
vector 313 SimpleWlanFtp.ftp_cli.tcp.conn-4 numRtos:vector ETV
attr interpolationmode sample-hold
attr recordingmode vector
vector 314 SimpleWlanFtp.ftp_cli.tcp.conn-4 load:vector ETV
attr interpolationmode sample-hold
attr recordingmode vector
vector 315 SimpleWlanFtp.ftp_cli.tcp.conn-4 calcLoad:vector ETV
attr interpolationmode sample-hold
attr recordingmode vector
vector 316 SimpleWlanFtp.ftp_cli.tcp.conn-4 markingProb:vector ETV
attr interpolationmode sample-hold
attr recordingmode vector
304	93	1	0
304	366	4	0
304	909	10	0
304	1992	22	0
304	4155	46	0
293	93	1	0
293	366	4	0
293	909	10	0
293	1992	22	0
293	4155	46	0
291	93	1	65535
291	366	4	65535
291	909	10	65535
291	1992	22	65535
291	4155	46	65535
290	93	1	65535
290	366	4	65535
290	909	10	65535
290	1992	22	65535
290	4155	46	65535
8	94	1	48
8	367	4	48
8	910	10	48
8	1993	22	48
8	4156	46	48
14	0	0	0
15	0	0	0
16	0	0	0
24	0	0	0
24	0	0	0
24	0	0	0
24	0	0	0
24	0	0	0
24	3	0.05488135023	1
24	5	0.05488135023	0
24	12	0.15488135023	1
24	14	0.15488135023	0
24	21	0.25488135023	1
24	23	0.25488135023	0
24	30	0.35488135023	1
24	32	0.35488135023	0
24	39	0.45488135023	1
24	41	0.45488135023	0
24	48	0.55488135023	1
24	50	0.55488135023	0
24	57	0.65488135023	1
24	59	0.65488135023	0
24	66	0.75488135023	1
24	68	0.75488135023	0
24	75	0.85488135023	1
24	77	0.85488135023	0
24	84	0.95488135023	1
24	86	0.95488135023	0
24	97	1.05488135023	1
24	99	1.05488135023	0
24	106	1.15488135023	1
24	108	1.15488135023	0
24	115	1.25488135023	1
24	117	1.25488135023	0
24	124	1.35488135023	1
24	126	1.35488135023	0
24	133	1.45488135023	1
24	135	1.45488135023	0
24	142	1.55488135023	1
24	144	1.55488135023	0
24	151	1.65488135023	1
24	153	1.65488135023	0
24	160	1.75488135023	1
24	162	1.75488135023	0
24	169	1.85488135023	1
24	171	1.85488135023	0
24	178	1.95488135023	1
24	180	1.95488135023	0
24	187	2.05488135023	1
24	189	2.05488135023	0
24	196	2.15488135023	1
24	198	2.15488135023	0
24	205	2.25488135023	1
24	207	2.25488135023	0
24	214	2.35488135023	1
24	216	2.35488135023	0
24	223	2.45488135023	1
24	225	2.45488135023	0
24	232	2.55488135023	1
24	234	2.55488135023	0
24	241	2.65488135023	1
24	243	2.65488135023	0
24	250	2.75488135023	1
24	252	2.75488135023	0
24	259	2.85488135023	1
24	261	2.85488135023	0
24	268	2.95488135023	1
24	270	2.95488135023	0
24	277	3.05488135023	1
24	279	3.05488135023	0
24	286	3.15488135023	1
24	288	3.15488135023	0
24	295	3.25488135023	1
24	297	3.25488135023	0
24	304	3.35488135023	1
24	306	3.35488135023	0
24	313	3.45488135023	1
24	315	3.45488135023	0
24	322	3.55488135023	1
24	324	3.55488135023	0
24	331	3.65488135023	1
24	333	3.65488135023	0
24	340	3.75488135023	1
24	342	3.75488135023	0
24	349	3.85488135023	1
24	351	3.85488135023	0
24	358	3.95488135023	1
24	360	3.95488135023	0
24	370	4.05488135023	1
24	372	4.05488135023	0
24	379	4.15488135023	1
24	381	4.15488135023	0
24	388	4.25488135023	1
24	390	4.25488135023	0
24	397	4.35488135023	1
24	399	4.35488135023	0
24	406	4.45488135023	1
24	408	4.45488135023	0
24	415	4.55488135023	1
24	417	4.55488135023	0
24	424	4.65488135023	1
24	426	4.65488135023	0
24	433	4.75488135023	1
24	435	4.75488135023	0
24	442	4.85488135023	1
24	444	4.85488135023	0
24	451	4.95488135023	1
24	453	4.95488135023	0
24	460	5.05488135023	1
24	462	5.05488135023	0
24	469	5.15488135023	1
24	471	5.15488135023	0
24	478	5.25488135023	1
24	480	5.25488135023	0
24	487	5.35488135023	1
24	489	5.35488135023	0
24	496	5.45488135023	1
24	498	5.45488135023	0
24	505	5.55488135023	1
24	507	5.55488135023	0
24	514	5.65488135023	1
24	516	5.65488135023	0
24	523	5.75488135023	1
24	525	5.75488135023	0
24	532	5.85488135023	1
24	534	5.85488135023	0
24	541	5.95488135023	1
24	543	5.95488135023	0
24	550	6.05488135023	1
24	552	6.05488135023	0
24	559	6.15488135023	1
24	561	6.15488135023	0
24	568	6.25488135023	1
24	570	6.25488135023	0
24	577	6.35488135023	1
24	579	6.35488135023	0
24	586	6.45488135023	1
24	588	6.45488135023	0
24	595	6.55488135023	1
24	597	6.55488135023	0
24	604	6.65488135023	1
24	606	6.65488135023	0
24	613	6.75488135023	1
24	615	6.75488135023	0
24	622	6.85488135023	1
24	624	6.85488135023	0
24	631	6.95488135023	1
24	633	6.95488135023	0
24	640	7.05488135023	1
24	642	7.05488135023	0
24	649	7.15488135023	1
24	651	7.15488135023	0
24	658	7.25488135023	1
24	660	7.25488135023	0
24	667	7.35488135023	1
24	669	7.35488135023	0
24	676	7.45488135023	1
24	678	7.45488135023	0
24	685	7.55488135023	1
24	687	7.55488135023	0
24	694	7.65488135023	1
24	696	7.65488135023	0
24	703	7.75488135023	1
24	705	7.75488135023	0
24	712	7.85488135023	1
24	714	7.85488135023	0
24	721	7.95488135023	1
24	723	7.95488135023	0
24	730	8.05488135023	1
24	732	8.05488135023	0
24	739	8.15488135023	1
24	741	8.15488135023	0
24	748	8.25488135023	1
24	750	8.25488135023	0
24	757	8.35488135023	1
24	759	8.35488135023	0
24	766	8.45488135023	1
24	768	8.45488135023	0
24	775	8.55488135023	1
24	777	8.55488135023	0
24	784	8.65488135023	1
24	786	8.65488135023	0
24	793	8.75488135023	1
24	795	8.75488135023	0
24	802	8.85488135023	1
24	804	8.85488135023	0
24	811	8.95488135023	1
24	813	8.95488135023	0
24	820	9.05488135023	1
24	822	9.05488135023	0
24	829	9.15488135023	1
24	831	9.15488135023	0
24	838	9.25488135023	1
24	840	9.25488135023	0
24	847	9.35488135023	1
24	849	9.35488135023	0
24	856	9.45488135023	1
24	858	9.45488135023	0
24	865	9.55488135023	1
24	867	9.55488135023	0
24	874	9.65488135023	1
24	876	9.65488135023	0
24	883	9.75488135023	1
24	885	9.75488135023	0
24	892	9.85488135023	1
24	894	9.85488135023	0
24	901	9.95488135023	1
24	903	9.95488135023	0
24	913	10.05488135023	1
24	915	10.05488135023	0
24	922	10.15488135023	1
24	924	10.15488135023	0
24	931	10.25488135023	1
24	933	10.25488135023	0
24	940	10.35488135023	1
24	942	10.35488135023	0
24	949	10.45488135023	1
24	951	10.45488135023	0
24	958	10.55488135023	1
24	960	10.55488135023	0
24	967	10.65488135023	1
24	969	10.65488135023	0
24	976	10.75488135023	1
24	978	10.75488135023	0
24	985	10.85488135023	1
24	987	10.85488135023	0
24	994	10.95488135023	1
24	996	10.95488135023	0
24	1003	11.05488135023	1
24	1005	11.05488135023	0
24	1012	11.15488135023	1
24	1014	11.15488135023	0
24	1021	11.25488135023	1
24	1023	11.25488135023	0
24	1030	11.35488135023	1
24	1032	11.35488135023	0
24	1039	11.45488135023	1
24	1041	11.45488135023	0
24	1048	11.55488135023	1
24	1050	11.55488135023	0
24	1057	11.65488135023	1
24	1059	11.65488135023	0
24	1066	11.75488135023	1
24	1068	11.75488135023	0
24	1075	11.85488135023	1
24	1077	11.85488135023	0
24	1084	11.95488135023	1
24	1086	11.95488135023	0
24	1093	12.05488135023	1
24	1095	12.05488135023	0
24	1102	12.15488135023	1
24	1104	12.15488135023	0
[...]
226	9021	73.2	0
226	9021	73.3	0
226	9021	73.4	0
226	9021	73.5	0
226	9021	73.6	0
226	9021	73.7	0
226	9021	73.8	0
226	9021	73.9	0
226	9021	74	0
226	9021	74.1	0
226	9021	74.2	0
226	9021	74.3	0
226	9021	74.4	0
226	9021	74.5	0
226	9021	74.6	0
226	9021	74.7	0
226	9021	74.8	0
226	9021	74.9	0
226	9021	75	0
226	9021	75.1	0
226	9021	75.2	0
226	9021	75.3	0
226	9021	75.4	0
226	9021	75.5	0
226	9021	75.6	0
226	9021	75.7	0
226	9021	75.8	0
226	9021	75.9	0
226	9021	76	0
226	9021	76.1	0
226	9021	76.2	0
226	9021	76.3	0
226	9021	76.4	0
226	9021	76.5	0
226	9021	76.6	0
226	9021	76.7	0
226	9021	76.8	0
226	9021	76.9	0
226	9021	77	0
226	9021	77.1	0
226	9021	77.2	0
226	9021	77.3	0
226	9021	77.4	0
226	9021	77.5	0
226	9021	77.6	0
226	9021	77.7	0
226	9021	77.8	0
226	9021	77.9	0
226	9021	78	0
226	9021	78.1	0
226	9021	78.2	0
226	9021	78.3	0
226	9021	78.4	0
226	9021	78.5	0
226	9021	78.6	0
226	9021	78.7	0
226	9021	78.8	0
226	9021	78.9	0
226	9021	79	0
226	9021	79.1	0
226	9021	79.2	0
226	9021	79.3	0
226	9021	79.4	0
226	9021	79.5	0
226	9021	79.6	0
226	9021	79.7	0
226	9021	79.8	0
226	9021	79.9	0
226	9021	80	0
226	9021	80.1	0
226	9021	80.2	0
226	9021	80.3	0
226	9021	80.4	0
226	9021	80.5	0
226	9021	80.6	0
226	9021	80.7	0
226	9021	80.8	0
226	9021	80.9	0
226	9021	81	0
226	9021	81.1	0
226	9021	81.2	0
226	9021	81.3	0
226	9021	81.4	0
226	9021	81.5	0
226	9021	81.6	0
226	9021	81.7	0
226	9021	81.8	0
226	9021	81.9	0
226	9021	82	0
226	9021	82.1	0
226	9021	82.2	0
226	9021	82.3	0
226	9021	82.4	0
226	9021	82.5	0
226	9021	82.6	0
226	9021	82.7	0
226	9021	82.8	0
226	9021	82.9	0
226	9021	83	0
226	9021	83.1	0
226	9021	83.2	0
226	9021	83.3	0
226	9021	83.4	0
226	9021	83.5	0
226	9021	83.6	0
226	9021	83.7	0
226	9021	83.8	0
226	9021	83.9	0
226	9021	84	0
226	9021	84.1	0
226	9021	84.2	0
226	9021	84.3	0
226	9021	84.4	0
226	9021	84.5	0
226	9021	84.6	0
226	9021	84.7	0
226	9021	84.8	0
226	9021	84.9	0
226	9021	85	0
226	9021	85.1	0
226	9021	85.2	0
226	9021	85.3	0
226	9021	85.4	0
226	9021	85.5	0
226	9021	85.6	0
226	9021	85.7	0
226	9021	85.8	0
226	9021	85.9	0
226	9021	86	0
226	9021	86.1	0
226	9021	86.2	0
226	9021	86.3	0
226	9021	86.4	0
226	9021	86.5	0
226	9021	86.6	0
226	9021	86.7	0
226	9021	86.8	0
226	9021	86.9	0
226	9021	87	0
226	9021	87.1	0
226	9021	87.2	0
226	9021	87.3	0
226	9021	87.4	0
226	9021	87.5	0
226	9021	87.6	0
226	9021	87.7	0
226	9021	87.8	0
226	9021	87.9	0
226	9021	88	0
226	9021	88.1	0
226	9021	88.2	0
226	9021	88.3	0
226	9021	88.4	0
226	9021	88.5	0
226	9021	88.6	0
226	9021	88.7	0
226	9021	88.8	0
226	9021	88.9	0
226	9021	89	0
226	9021	89.1	0
226	9021	89.2	0
226	9021	89.3	0
226	9021	89.4	0
226	9021	89.5	0
226	9021	89.6	0
226	9021	89.7	0
226	9021	89.8	0
226	9021	89.9	0
226	9021	90	0
226	9021	90.1	0
226	9021	90.2	0
226	9021	90.3	0
226	9021	90.4	0
226	9021	90.5	0
226	9021	90.6	0
226	9021	90.7	0
226	9021	90.8	0
226	9021	90.9	0
226	9021	91	0
226	9021	91.1	0
226	9021	91.2	0
226	9021	91.3	0
226	9021	91.4	0
226	9021	91.5	0
226	9021	91.6	0
226	9021	91.7	0
226	9021	91.8	0
226	9021	91.9	0
226	9021	92	0
226	9021	92.1	0
226	9021	92.2	0
226	9021	92.3	0
226	9021	92.4	0
226	9021	92.5	0
226	9021	92.6	0
226	9021	92.7	0
226	9021	92.8	0
226	9021	92.9	0
226	9021	93	0
226	9021	93.1	0
226	9021	93.2	0
226	9021	93.3	0
226	9021	93.4	0
226	9021	93.5	0
226	9021	93.6	0
226	9021	93.7	0
226	9021	93.8	0
226	9021	93.9	0
226	9021	94	0
226	9021	94.1	0
226	9021	94.2	0
226	9021	94.3	0
226	9021	94.4	0
226	9021	94.5	0
226	9021	94.6	0
226	9021	94.7	0
226	9021	94.8	0
226	9021	94.9	0
226	9021	95	0
226	9021	95.1	0
226	9021	95.2	0
226	9021	95.3	0
226	9021	95.4	0
226	9021	95.5	0
226	9021	95.6	0
226	9021	95.7	0
226	9021	95.8	0
226	9021	95.9	0
226	9021	96	0
226	9021	96.1	0
226	9021	96.2	0
226	9021	96.3	0
226	9021	96.4	0
226	9021	96.5	0
226	9021	96.6	0
226	9021	96.7	0
226	9021	96.8	0
226	9021	96.9	0
226	9021	97	0
226	9021	97.1	0
226	9021	97.2	0
226	9021	97.3	0
226	9021	97.4	0
226	9021	97.5	0
226	9021	97.6	0
226	9021	97.7	0
226	9021	97.8	0
226	9021	97.9	0
226	9021	98	0
226	9021	98.1	0
226	9021	98.2	0
226	9021	98.3	0
226	9021	98.4	0
226	9021	98.5	0
226	9021	98.6	0
226	9021	98.7	0
226	9021	98.8	0
226	9021	98.9	0
226	9021	99	0
226	9021	99.1	0
226	9021	99.2	0
226	9021	99.3	0
226	9021	99.4	0
226	9021	99.5	0
226	9021	99.6	0
226	9021	99.7	0
226	9021	99.8	0
226	9021	99.9	0
226	9021	100	0
228	9021	0.1	0
228	9021	0.2	0
228	9021	0.3	0
228	9021	0.4	0
228	9021	0.5	0
228	9021	0.6	0
228	9021	0.7	0
228	9021	0.8	0
228	9021	0.9	0
228	9021	1	0
228	9021	1.1	0
228	9021	1.2	0
228	9021	1.3	0
228	9021	1.4	0
228	9021	1.5	0
228	9021	1.6	0
228	9021	1.7	0
228	9021	1.8	0
228	9021	1.9	0
228	9021	2	0
228	9021	2.1	0
228	9021	2.2	0
228	9021	2.3	0
228	9021	2.4	0
228	9021	2.5	0
228	9021	2.6	0
228	9021	2.7	0
228	9021	2.8	0
228	9021	2.9	0
228	9021	3	0
228	9021	3.1	0
228	9021	3.2	0
228	9021	3.3	0
228	9021	3.4	0
228	9021	3.5	0
228	9021	3.6	0
228	9021	3.7	0
228	9021	3.8	0
228	9021	3.9	0
228	9021	4	0
228	9021	4.1	0
228	9021	4.2	0
228	9021	4.3	0
228	9021	4.4	0
228	9021	4.5	0
228	9021	4.6	0
228	9021	4.7	0
228	9021	4.8	0
228	9021	4.9	0
228	9021	5	0
228	9021	5.1	0
228	9021	5.2	0
228	9021	5.3	0
228	9021	5.4	0
228	9021	5.5	0
228	9021	5.6	0
228	9021	5.7	0
228	9021	5.8	0
228	9021	5.9	0
228	9021	6	0
228	9021	6.1	0
228	9021	6.2	0
228	9021	6.3	0
228	9021	6.4	0
228	9021	6.5	0
228	9021	6.6	0
228	9021	6.7	0
228	9021	6.8	0
228	9021	6.9	0
228	9021	7	0
228	9021	7.1	0
228	9021	7.2	0
228	9021	7.3	0
228	9021	7.4	0
228	9021	7.5	0
228	9021	7.6	0
228	9021	7.7	0
228	9021	7.8	0
228	9021	7.9	0
228	9021	8	0
228	9021	8.1	0
228	9021	8.2	0
228	9021	8.3	0
228	9021	8.4	0
228	9021	8.5	0
228	9021	8.6	0
228	9021	8.7	0
228	9021	8.8	0
228	9021	8.9	0
228	9021	9	0
228	9021	9.1	0
228	9021	9.2	0
228	9021	9.3	0
228	9021	9.4	0
228	9021	9.5	0
228	9021	9.6	0
228	9021	9.7	0
228	9021	9.8	0
228	9021	9.9	0
228	9021	10	0
228	9021	10.1	0
228	9021	10.2	0
228	9021	10.3	0
228	9021	10.4	0
228	9021	10.5	0
228	9021	10.6	0
228	9021	10.7	0
228	9021	10.8	0
228	9021	10.9	0
228	9021	11	0
228	9021	11.1	0
228	9021	11.2	0
228	9021	11.3	0
228	9021	11.4	0
228	9021	11.5	0
228	9021	11.6	0
228	9021	11.7	0
228	9021	11.8	0
228	9021	11.9	0
228	9021	12	0
228	9021	12.1	0
228	9021	12.2	0
228	9021	12.3	0
228	9021	12.4	0
228	9021	12.5	0
228	9021	12.6	0
228	9021	12.7	0
228	9021	12.8	0
228	9021	12.9	0
228	9021	13	0
228	9021	13.1	0
228	9021	13.2	0
228	9021	13.3	0
228	9021	13.4	0
228	9021	13.5	0
228	9021	13.6	0
228	9021	13.7	0
228	9021	13.8	0
228	9021	13.9	0
228	9021	14	0
228	9021	14.1	0
228	9021	14.2	0
228	9021	14.3	0
228	9021	14.4	0
228	9021	14.5	0
228	9021	14.6	0
228	9021	14.7	0
228	9021	14.8	0
228	9021	14.9	0
228	9021	15	0
228	9021	15.1	0
228	9021	15.2	0
228	9021	15.3	0
228	9021	15.4	0
228	9021	15.5	0
228	9021	15.6	0
228	9021	15.7	0
228	9021	15.8	0
228	9021	15.9	0
228	9021	16	0
228	9021	16.1	0
228	9021	16.2	0
228	9021	16.3	0
228	9021	16.4	0
228	9021	16.5	0
228	9021	16.6	0
228	9021	16.7	0
228	9021	16.8	0
228	9021	16.9	0
228	9021	17	0
228	9021	17.1	0
228	9021	17.2	0
228	9021	17.3	0
228	9021	17.4	0
228	9021	17.5	0
228	9021	17.6	0
228	9021	17.7	0
228	9021	17.8	0
228	9021	17.9	0
228	9021	18	0
228	9021	18.1	0
228	9021	18.2	0
228	9021	18.3	0
228	9021	18.4	0
228	9021	18.5	0
228	9021	18.6	0
228	9021	18.7	0
228	9021	18.8	0
228	9021	18.9	0
228	9021	19	0
228	9021	19.1	0
228	9021	19.2	0
228	9021	19.3	0
228	9021	19.4	0
228	9021	19.5	0
228	9021	19.6	0
228	9021	19.7	0
228	9021	19.8	0
228	9021	19.9	0
228	9021	20	0
228	9021	20.1	0
228	9021	20.2	0
228	9021	20.3	0
228	9021	20.4	0
228	9021	20.5	0
228	9021	20.6	0
228	9021	20.7	0
228	9021	20.8	0
228	9021	20.9	0
228	9021	21	0
228	9021	21.1	0
228	9021	21.2	0
228	9021	21.3	0
228	9021	21.4	0
228	9021	21.5	0
228	9021	21.6	0
228	9021	21.7	0
228	9021	21.8	0
228	9021	21.9	0
228	9021	22	0
228	9021	22.1	0
228	9021	22.2	0
228	9021	22.3	0
228	9021	22.4	0
228	9021	22.5	0
228	9021	22.6	0
228	9021	22.7	0
228	9021	22.8	0
228	9021	22.9	0
228	9021	23	0
228	9021	23.1	0
228	9021	23.2	0
228	9021	23.3	0
228	9021	23.4	0
228	9021	23.5	0
228	9021	23.6	0
228	9021	23.7	0
228	9021	23.8	0
228	9021	23.9	0
228	9021	24	0
228	9021	24.1	0
228	9021	24.2	0
228	9021	24.3	0
228	9021	24.4	0
228	9021	24.5	0
228	9021	24.6	0
228	9021	24.7	0
228	9021	24.8	0
228	9021	24.9	0
228	9021	25	0
228	9021	25.1	0
228	9021	25.2	0
228	9021	25.3	0
228	9021	25.4	0
228	9021	25.5	0
228	9021	25.6	0
228	9021	25.7	0
228	9021	25.8	0
228	9021	25.9	0
228	9021	26	0
228	9021	26.1	0
228	9021	26.2	0
228	9021	26.3	0
228	9021	26.4	0
228	9021	26.5	0
228	9021	26.6	0
228	9021	26.7	0
228	9021	26.8	0
228	9021	26.9	0
228	9021	27	0
228	9021	27.1	0
228	9021	27.2	0
228	9021	27.3	0
228	9021	27.4	0
228	9021	27.5	0
228	9021	27.6	0
228	9021	27.7	0
228	9021	27.8	0
228	9021	27.9	0
228	9021	28	0
228	9021	28.1	0
228	9021	28.2	0
228	9021	28.3	0
228	9021	28.4	0
228	9021	28.5	0
228	9021	28.6	0
228	9021	28.7	0
228	9021	28.8	0
228	9021	28.9	0
228	9021	29	0
228	9021	29.1	0
228	9021	29.2	0
228	9021	29.3	0
228	9021	29.4	0
228	9021	29.5	0
228	9021	29.6	0
228	9021	29.7	0
228	9021	29.8	0
228	9021	29.9	0
228	9021	30	0
228	9021	30.1	0
228	9021	30.2	0
228	9021	30.3	0
228	9021	30.4	0
228	9021	30.5	0
228	9021	30.6	0
228	9021	30.7	0
228	9021	30.8	0
228	9021	30.9	0
228	9021	31	0
228	9021	31.1	0
228	9021	31.2	0
228	9021	31.3	0
228	9021	31.4	0
228	9021	31.5	0
228	9021	31.6	0
228	9021	31.7	0
228	9021	31.8	0
228	9021	31.9	0
228	9021	32	0
228	9021	32.1	0
228	9021	32.2	0
228	9021	32.3	0
228	9021	32.4	0
228	9021	32.5	0
228	9021	32.6	0
228	9021	32.7	0
228	9021	32.8	0
228	9021	32.9	0
228	9021	33	0
228	9021	33.1	0
228	9021	33.2	0
228	9021	33.3	0
228	9021	33.4	0
228	9021	33.5	0
228	9021	33.6	0
228	9021	33.7	0
228	9021	33.8	0
228	9021	33.9	0
228	9021	34	0
228	9021	34.1	0
228	9021	34.2	0
228	9021	34.3	0
228	9021	34.4	0
228	9021	34.5	0
228	9021	34.6	0
228	9021	34.7	0
228	9021	34.8	0
228	9021	34.9	0
228	9021	35	0
228	9021	35.1	0
228	9021	35.2	0
228	9021	35.3	0
228	9021	35.4	0
228	9021	35.5	0
228	9021	35.6	0
228	9021	35.7	0
228	9021	35.8	0
228	9021	35.9	0
228	9021	36	0
228	9021	36.1	0
228	9021	36.2	0
228	9021	36.3	0
228	9021	36.4	0
228	9021	36.5	0
228	9021	36.6	0
228	9021	36.7	0
228	9021	36.8	0
228	9021	36.9	0
228	9021	37	0
228	9021	37.1	0
228	9021	37.2	0
228	9021	37.3	0
228	9021	37.4	0
228	9021	37.5	0
228	9021	37.6	0
228	9021	37.7	0
228	9021	37.8	0
228	9021	37.9	0
228	9021	38	0
228	9021	38.1	0
228	9021	38.2	0
228	9021	38.3	0
228	9021	38.4	0
228	9021	38.5	0
228	9021	38.6	0
228	9021	38.7	0
228	9021	38.8	0
228	9021	38.9	0
228	9021	39	0
228	9021	39.1	0
228	9021	39.2	0
228	9021	39.3	0
228	9021	39.4	0
228	9021	39.5	0
228	9021	39.6	0
228	9021	39.7	0
228	9021	39.8	0
228	9021	39.9	0
228	9021	40	0
228	9021	40.1	0
228	9021	40.2	0
228	9021	40.3	0
228	9021	40.4	0
228	9021	40.5	0
228	9021	40.6	0
228	9021	40.7	0
228	9021	40.8	0
228	9021	40.9	0
228	9021	41	0
228	9021	41.1	0
228	9021	41.2	0
228	9021	41.3	0
228	9021	41.4	0
228	9021	41.5	0
228	9021	41.6	0
228	9021	41.7	0
228	9021	41.8	0
228	9021	41.9	0
228	9021	42	0
228	9021	42.1	0
228	9021	42.2	0
228	9021	42.3	0
228	9021	42.4	0
228	9021	42.5	0
228	9021	42.6	0
228	9021	42.7	0
228	9021	42.8	0
228	9021	42.9	0
228	9021	43	0
228	9021	43.1	0
228	9021	43.2	0
228	9021	43.3	0
228	9021	43.4	0
228	9021	43.5	0
228	9021	43.6	0
228	9021	43.7	0
228	9021	43.8	0
228	9021	43.9	0
228	9021	44	0
228	9021	44.1	0
228	9021	44.2	0
228	9021	44.3	0
228	9021	44.4	0
228	9021	44.5	0
228	9021	44.6	0
228	9021	44.7	0
228	9021	44.8	0
228	9021	44.9	0
228	9021	45	0
228	9021	45.1	0
228	9021	45.2	0
228	9021	45.3	0
228	9021	45.4	0
228	9021	45.5	0
228	9021	45.6	0
228	9021	45.7	0
228	9021	45.8	0
228	9021	45.9	0
228	9021	46	0
228	9021	46.1	0
228	9021	46.2	0
228	9021	46.3	0
228	9021	46.4	0
228	9021	46.5	0
228	9021	46.6	0
228	9021	46.7	0
228	9021	46.8	0
228	9021	46.9	0
228	9021	47	0
228	9021	47.1	0
228	9021	47.2	0
228	9021	47.3	0
228	9021	47.4	0
228	9021	47.5	0
228	9021	47.6	0
228	9021	47.7	0
228	9021	47.8	0
228	9021	47.9	0
228	9021	48	0
228	9021	48.1	0
228	9021	48.2	0
228	9021	48.3	0
228	9021	48.4	0
228	9021	48.5	0
228	9021	48.6	0
228	9021	48.7	0
228	9021	48.8	0
228	9021	48.9	0
228	9021	49	0
228	9021	49.1	0
228	9021	49.2	0
228	9021	49.3	0
228	9021	49.4	0
228	9021	49.5	0
228	9021	49.6	0
228	9021	49.7	0
228	9021	49.8	0
228	9021	49.9	0
228	9021	50	0
228	9021	50.1	0
228	9021	50.2	0
228	9021	50.3	0
228	9021	50.4	0
228	9021	50.5	0
228	9021	50.6	0
228	9021	50.7	0
228	9021	50.8	0
228	9021	50.9	0
228	9021	51	0
228	9021	51.1	0
228	9021	51.2	0
228	9021	51.3	0
228	9021	51.4	0
228	9021	51.5	0
228	9021	51.6	0
228	9021	51.7	0
228	9021	51.8	0
228	9021	51.9	0
228	9021	52	0
228	9021	52.1	0
228	9021	52.2	0
228	9021	52.3	0
228	9021	52.4	0
228	9021	52.5	0
228	9021	52.6	0
228	9021	52.7	0
228	9021	52.8	0
228	9021	52.9	0
228	9021	53	0
228	9021	53.1	0
228	9021	53.2	0
228	9021	53.3	0
228	9021	53.4	0
228	9021	53.5	0
228	9021	53.6	0
228	9021	53.7	0
228	9021	53.8	0
228	9021	53.9	0
228	9021	54	0
228	9021	54.1	0
228	9021	54.2	0
228	9021	54.3	0
228	9021	54.4	0
228	9021	54.5	0
228	9021	54.6	0
228	9021	54.7	0
228	9021	54.8	0
228	9021	54.9	0
228	9021	55	0
228	9021	55.1	0
228	9021	55.2	0
228	9021	55.3	0
228	9021	55.4	0
228	9021	55.5	0
228	9021	55.6	0
228	9021	55.7	0
228	9021	55.8	0
228	9021	55.9	0
228	9021	56	0
228	9021	56.1	0
228	9021	56.2	0
228	9021	56.3	0
228	9021	56.4	0
228	9021	56.5	0
228	9021	56.6	0
228	9021	56.7	0
228	9021	56.8	0
228	9021	56.9	0
228	9021	57	0
228	9021	57.1	0
228	9021	57.2	0
228	9021	57.3	0
228	9021	57.4	0
228	9021	57.5	0
228	9021	57.6	0
228	9021	57.7	0
228	9021	57.8	0
228	9021	57.9	0
228	9021	58	0
228	9021	58.1	0
228	9021	58.2	0
228	9021	58.3	0
228	9021	58.4	0
228	9021	58.5	0
228	9021	58.6	0
228	9021	58.7	0
228	9021	58.8	0
228	9021	58.9	0
228	9021	59	0
228	9021	59.1	0
228	9021	59.2	0
228	9021	59.3	0
228	9021	59.4	0
228	9021	59.5	0
228	9021	59.6	0
228	9021	59.7	0
228	9021	59.8	0
228	9021	59.9	0
228	9021	60	0
228	9021	60.1	0
228	9021	60.2	0
228	9021	60.3	0
228	9021	60.4	0
228	9021	60.5	0
228	9021	60.6	0
228	9021	60.7	0
228	9021	60.8	0
228	9021	60.9	0
228	9021	61	0
228	9021	61.1	0
228	9021	61.2	0
228	9021	61.3	0
228	9021	61.4	0
228	9021	61.5	0
228	9021	61.6	0
228	9021	61.7	0
228	9021	61.8	0
228	9021	61.9	0
228	9021	62	0
228	9021	62.1	0
228	9021	62.2	0
228	9021	62.3	0
228	9021	62.4	0
228	9021	62.5	0
228	9021	62.6	0
228	9021	62.7	0
228	9021	62.8	0
228	9021	62.9	0
228	9021	63	0
228	9021	63.1	0
228	9021	63.2	0
228	9021	63.3	0
228	9021	63.4	0
228	9021	63.5	0
228	9021	63.6	0
228	9021	63.7	0
228	9021	63.8	0
228	9021	63.9	0
228	9021	64	0
228	9021	64.1	0
228	9021	64.2	0
228	9021	64.3	0
228	9021	64.4	0
228	9021	64.5	0
228	9021	64.6	0
228	9021	64.7	0
228	9021	64.8	0
228	9021	64.9	0
228	9021	65	0
228	9021	65.1	0
228	9021	65.2	0
228	9021	65.3	0
228	9021	65.4	0
228	9021	65.5	0
228	9021	65.6	0
228	9021	65.7	0
228	9021	65.8	0
228	9021	65.9	0
228	9021	66	0
228	9021	66.1	0
228	9021	66.2	0
228	9021	66.3	0
228	9021	66.4	0
228	9021	66.5	0
228	9021	66.6	0
228	9021	66.7	0
228	9021	66.8	0
228	9021	66.9	0
228	9021	67	0
228	9021	67.1	0
228	9021	67.2	0
228	9021	67.3	0
228	9021	67.4	0
228	9021	67.5	0
228	9021	67.6	0
228	9021	67.7	0
228	9021	67.8	0
228	9021	67.9	0
228	9021	68	0
228	9021	68.1	0
228	9021	68.2	0
228	9021	68.3	0
228	9021	68.4	0
228	9021	68.5	0
228	9021	68.6	0
228	9021	68.7	0
228	9021	68.8	0
228	9021	68.9	0
228	9021	69	0
228	9021	69.1	0
228	9021	69.2	0
228	9021	69.3	0
228	9021	69.4	0
228	9021	69.5	0
228	9021	69.6	0
228	9021	69.7	0
228	9021	69.8	0
228	9021	69.9	0
228	9021	70	0
228	9021	70.1	0
228	9021	70.2	0
228	9021	70.3	0
228	9021	70.4	0
228	9021	70.5	0
228	9021	70.6	0
228	9021	70.7	0
228	9021	70.8	0
228	9021	70.9	0
228	9021	71	0
228	9021	71.1	0
228	9021	71.2	0
228	9021	71.3	0
228	9021	71.4	0
228	9021	71.5	0
228	9021	71.6	0
228	9021	71.7	0
228	9021	71.8	0
228	9021	71.9	0
228	9021	72	0
228	9021	72.1	0
228	9021	72.2	0
228	9021	72.3	0
228	9021	72.4	0
228	9021	72.5	0
228	9021	72.6	0
228	9021	72.7	0
228	9021	72.8	0
228	9021	72.9	0
228	9021	73	0
228	9021	73.1	0
228	9021	73.2	0
228	9021	73.3	0
228	9021	73.4	0
228	9021	73.5	0
228	9021	73.6	0
228	9021	73.7	0
228	9021	73.8	0
228	9021	73.9	0
228	9021	74	0
228	9021	74.1	0
228	9021	74.2	0
228	9021	74.3	0
228	9021	74.4	0
228	9021	74.5	0
228	9021	74.6	0
228	9021	74.7	0
228	9021	74.8	0
228	9021	74.9	0
228	9021	75	0
228	9021	75.1	0
228	9021	75.2	0
228	9021	75.3	0
228	9021	75.4	0
228	9021	75.5	0
228	9021	75.6	0
228	9021	75.7	0
228	9021	75.8	0
228	9021	75.9	0
228	9021	76	0
228	9021	76.1	0
228	9021	76.2	0
228	9021	76.3	0
228	9021	76.4	0
228	9021	76.5	0
228	9021	76.6	0
228	9021	76.7	0
228	9021	76.8	0
228	9021	76.9	0
228	9021	77	0
228	9021	77.1	0
228	9021	77.2	0
228	9021	77.3	0
228	9021	77.4	0
228	9021	77.5	0
228	9021	77.6	0
228	9021	77.7	0
228	9021	77.8	0
228	9021	77.9	0
228	9021	78	0
228	9021	78.1	0
228	9021	78.2	0
228	9021	78.3	0
228	9021	78.4	0
228	9021	78.5	0
228	9021	78.6	0
228	9021	78.7	0
228	9021	78.8	0
228	9021	78.9	0
228	9021	79	0
228	9021	79.1	0
228	9021	79.2	0
228	9021	79.3	0
228	9021	79.4	0
228	9021	79.5	0
228	9021	79.6	0
228	9021	79.7	0
228	9021	79.8	0
228	9021	79.9	0
228	9021	80	0
228	9021	80.1	0
228	9021	80.2	0
228	9021	80.3	0
228	9021	80.4	0
228	9021	80.5	0
228	9021	80.6	0
228	9021	80.7	0
228	9021	80.8	0
228	9021	80.9	0
228	9021	81	0
228	9021	81.1	0
228	9021	81.2	0
228	9021	81.3	0
228	9021	81.4	0
228	9021	81.5	0
228	9021	81.6	0
228	9021	81.7	0
228	9021	81.8	0
228	9021	81.9	0
228	9021	82	0
228	9021	82.1	0
228	9021	82.2	0
228	9021	82.3	0
228	9021	82.4	0
228	9021	82.5	0
228	9021	82.6	0
228	9021	82.7	0
228	9021	82.8	0
228	9021	82.9	0
228	9021	83	0
228	9021	83.1	0
228	9021	83.2	0
228	9021	83.3	0
228	9021	83.4	0
228	9021	83.5	0
228	9021	83.6	0
228	9021	83.7	0
228	9021	83.8	0
228	9021	83.9	0
228	9021	84	0
228	9021	84.1	0
228	9021	84.2	0
228	9021	84.3	0
228	9021	84.4	0
228	9021	84.5	0
228	9021	84.6	0
228	9021	84.7	0
228	9021	84.8	0
228	9021	84.9	0
228	9021	85	0
228	9021	85.1	0
228	9021	85.2	0
228	9021	85.3	0
228	9021	85.4	0
228	9021	85.5	0
228	9021	85.6	0
228	9021	85.7	0
228	9021	85.8	0
228	9021	85.9	0
228	9021	86	0
228	9021	86.1	0
228	9021	86.2	0
228	9021	86.3	0
228	9021	86.4	0
228	9021	86.5	0
228	9021	86.6	0
228	9021	86.7	0
228	9021	86.8	0
228	9021	86.9	0
228	9021	87	0
228	9021	87.1	0
228	9021	87.2	0
228	9021	87.3	0
228	9021	87.4	0
228	9021	87.5	0
228	9021	87.6	0
228	9021	87.7	0
228	9021	87.8	0
228	9021	87.9	0
228	9021	88	0
228	9021	88.1	0
228	9021	88.2	0
228	9021	88.3	0
228	9021	88.4	0
228	9021	88.5	0
228	9021	88.6	0
228	9021	88.7	0
228	9021	88.8	0
228	9021	88.9	0
228	9021	89	0
228	9021	89.1	0
228	9021	89.2	0
228	9021	89.3	0
228	9021	89.4	0
228	9021	89.5	0
228	9021	89.6	0
228	9021	89.7	0
228	9021	89.8	0
228	9021	89.9	0
228	9021	90	0
228	9021	90.1	0
228	9021	90.2	0
228	9021	90.3	0
228	9021	90.4	0
228	9021	90.5	0
228	9021	90.6	0
228	9021	90.7	0
228	9021	90.8	0
228	9021	90.9	0
228	9021	91	0
228	9021	91.1	0
228	9021	91.2	0
228	9021	91.3	0
228	9021	91.4	0
228	9021	91.5	0
228	9021	91.6	0
228	9021	91.7	0
228	9021	91.8	0
228	9021	91.9	0
228	9021	92	0
228	9021	92.1	0
228	9021	92.2	0
228	9021	92.3	0
228	9021	92.4	0
228	9021	92.5	0
228	9021	92.6	0
228	9021	92.7	0
228	9021	92.8	0
228	9021	92.9	0
228	9021	93	0
228	9021	93.1	0
228	9021	93.2	0
228	9021	93.3	0
228	9021	93.4	0
228	9021	93.5	0
228	9021	93.6	0
228	9021	93.7	0
228	9021	93.8	0
228	9021	93.9	0
228	9021	94	0
228	9021	94.1	0
228	9021	94.2	0
228	9021	94.3	0
228	9021	94.4	0
228	9021	94.5	0
228	9021	94.6	0
228	9021	94.7	0
228	9021	94.8	0
228	9021	94.9	0
228	9021	95	0
228	9021	95.1	0
228	9021	95.2	0
228	9021	95.3	0
228	9021	95.4	0
228	9021	95.5	0
228	9021	95.6	0
228	9021	95.7	0
228	9021	95.8	0
228	9021	95.9	0
228	9021	96	0
228	9021	96.1	0
228	9021	96.2	0
228	9021	96.3	0
228	9021	96.4	0
228	9021	96.5	0
228	9021	96.6	0
228	9021	96.7	0
228	9021	96.8	0
228	9021	96.9	0
228	9021	97	0
228	9021	97.1	0
228	9021	97.2	0
228	9021	97.3	0
228	9021	97.4	0
228	9021	97.5	0
228	9021	97.6	0
228	9021	97.7	0
228	9021	97.8	0
228	9021	97.9	0
228	9021	98	0
228	9021	98.1	0
228	9021	98.2	0
228	9021	98.3	0
228	9021	98.4	0
228	9021	98.5	0
228	9021	98.6	0
228	9021	98.7	0
228	9021	98.8	0
228	9021	98.9	0
228	9021	99	0
228	9021	99.1	0
228	9021	99.2	0
228	9021	99.3	0
228	9021	99.4	0
228	9021	99.5	0
228	9021	99.6	0
228	9021	99.7	0
228	9021	99.8	0
228	9021	99.9	0
228	9021	100	0
254	0	0	0
255	0	0	0
256	0	0	0

